[JUNCTIONS]
;;Name              Elev                (Ymax)              (Y0)                (Ysur)              (Apond)            
;;----------------  ----------------    ----------------    ----------------    ----------------    ----------------   
FC01.40.1           48.544                                                                                             
FC01.39.1           -99999.0                                                                                           
FC01.39.2           -99999.0                                                                                           
FC01.38.2           -99999.0                                                                                           
FC01.37.2           -99999.0                                                                                           
FC01.36.2           -99999.0                                                                                           
FC01.34.1           -99999.0                                                                                           
FC01.34.2           -99999.0                                                                                           
FC_weir1.1          -99999.0                                                                                           
TEST.1              -99999.0                                                                                           
TEST.2              -99999.0                                                                                           
FC_weir1.2          -99999.0                                                                                           
FC01.33.2           -99999.0                                                                                           
FC01.32.2           -99999.0                                                                                           
FC01.31.2           -99999.0                                                                                           
FC01.30.2           -99999.0                                                                                           
FC01.29.2           -99999.0                                                                                           
FC01.28B.2          -99999.0                                                                                           
FC01.17.2           -99999.0                                                                                           
FC01.16.2           -99999.0                                                                                           
FC01.15.2           -99999.0                                                                                           
FC01.18.2           -99999.0                                                                                           
ds1.2               -99999.0                                                                                           
FC01.14.2           -99999.0                                                                                           
FC01.01.2           -99999.0                                                                                           
ds2.2               -99999.0                                                                                           
FC01.27.1           -99999.0                                                                                           
FC01.19.2           -99999.0                                                                                           
FC01.20.2           -99999.0                                                                                           
FC01.13.2           -99999.0                                                                                           
FC01.12.2           -99999.0                                                                                           
FC01.27.2           -99999.0                                                                                           
FC02.06.1           43.649                                                                                             
FC01.09.1           -99999.0                                                                                           
FC01.02.2           -99999.0                                                                                           
FC01.03.2           -99999.0                                                                                           
FC01.20.1           -99999.0                                                                                           
FC01.26.2           -99999.0                                                                                           
FC01.22.2           -99999.0                                                                                           
FC01.04.2           -99999.0                                                                                           
FC01.06.2           -99999.0                                                                                           
ds_weir.1           -99999.0                                                                                           
FC01.05.2           -99999.0                                                                                           
FC01.09.2           -99999.0                                                                                           
FC01.23.2           -99999.0                                                                                           
FC02.06.2           -99999.0                                                                                           
FC01.25.2           -99999.0                                                                                           
FC01.24.2           -99999.0                                                                                           
FC01.07.2           -99999.0                                                                                           
FC01.08.2           -99999.0                                                                                           
FC02.04.2           40.767                                                                                             
FC02.05.2           -99999.0                                                                                           
ds3.2               -99999.0                                                                                           
ds4.2               -99999.0                                                                                           
FC02.02.2           -99999.0                                                                                           
FC02.03.2           -99999.0                                                                                           
FC04.1_C.1          43.35                                                                                              

[OUTFALLS]
;;Name              Elev                Type                Param1              Gated               RouteTo            
;;                                      FREE                Gated               RouteTo            
;;                                      FIXED               Stage               Gated               RouteTo            
;;                                      TIDAL               Tcurve              Gated               RouteTo            
;;                                      TIMESERIES          Tseries             Gated               RouteTo            
;;----------------  ----------------    ----------------    ----------------    ----------------    ----------------   
ds_weir.2           -99999.0            FIXED               -99999.0                                                   
FC04.1_C.2          42.75               FIXED               42.75                                                      

[CONDUITS]
;;Name              From Node           To Node             Length              Roughness           InOffset            OutOffset           InitFlow            MaxFlow            
;;----------------  ----------------    ----------------    ----------------    ----------------    ----------------    ----------------    ----------------    ----------------   
FC01.2_R            FC01.12.2           FC01.09.1           10.0                0.015               100036.6            100036.5                                                   
FC04.1_C            FC04.1_C.1          FC04.1_C.2          20.0                0.015               0.0                 0.0                                                        
FC01.1_R            FC01.36.2           FC01.34.1           7.0                 0.015               100043.6            100043.5                                                   

[WEIRS]
;;Name              From Node           To Node             Type                CrestHt             Cd                  Gated               EC                  Cd2                 Sur                 Road_Width          Road_Surf          
;;----------------  ----------------    ----------------    ----------------    ----------------    ----------------    ----------------    ----------------    ----------------    ----------------    ----------------    ----------------   
FC02.04             FC02.05.2           FC02.04.2           TRANSVERSE          100041.736          0.57                NO                                                                                                                     
FC_weir1            FC_weir1.1          FC_weir1.2          TRANSVERSE          0.0                 0.57                NO                                                                                                                     
ds_weir             ds_weir.1           ds_weir.2           TRANSVERSE          0.0                 0.57                NO                                                                                                                     

[LOSSES]
;;Link              Kentry              Kexit               Kavg                Flap                Seepage            
;;----------------  ----------------    ----------------    ----------------    ----------------    ----------------   
FC01.2_R            0.5                 1.0                 0.0                 No                                     
FC04.1_C            0.5                 1.0                 0.0                 No                                     
FC01.1_R            0.5                 1.0                 0.0                 No                                     

[XSECTIONS]
;;Link              XsecType            Param1              Param2              Param3              Param4              Param5              Param6             
;;                  Default             Geom1               Geom2               Geom3               Geom4               Barrels             Culvert            
;;                  CUSTOM              Geom1               Curve               Barrels            
;;                  IRREGULAR           Tsect              
;;                  STREET              Street             
;;----------------  ----------------    ----------------    ----------------    ----------------    ----------------    ----------------    ----------------   
FC01.2_R            RECT_CLOSED         1.2                 2.4                 0.0                 0.0                 5                                      
FC04.1_C            CIRCULAR            1.2                 1.2                 0.0                 0.0                 3                                      
FC01.1_R            RECT_CLOSED         1.8                 1.8                 0.0                 0.0                 3                                      
FC02.04             RECT_OPEN           20.0                0.0                 0.0                 0.0                                                        
FC_weir1            RECT_OPEN           20.0                0.0                 0.0                 0.0                                                        
ds_weir             RECT_OPEN           20.0                0.0                 0.0                 0.0                                                        

[STREETS]
;;Name              Tcrown              Hcurb               Sx                  nRoad               a                   W                   Sides               Tback               Sback               nBack              
;;----------------  ----------------    ----------------    ----------------    ----------------    ----------------    ----------------    ----------------    ----------------    ----------------    ----------------   
DummyStreet         10                  0.2                 4                   0.016               0                   0                   1                   5                   8                   0.016              

[COORDINATES]
;;Name              X-Coord             Y-Coord            
;;----------------  ----------------    ----------------   
ds_weir.2           293322.89           6178859.74         
FC04.1_C.2          293407.91611200245  6177842.898979694  
FC01.40.1           292807.02           6177698.08         
FC01.39.1           292912.98           6177723.62         
FC01.39.2           293003.6            6177745.83         
FC01.38.2           293036.85           6177699.19         
FC01.37.2           293079.83           6177701.7          
FC01.36.2           293121.55           6177714.22         
FC01.34.1           293132.11           6177719.58         
FC01.34.2           293162.69           6177730.51         
FC_weir1.1          293164.69           6177733.94         
TEST.1              293173.7743948935   6177777.07355686   
TEST.2              293174.6730717264   6177801.337831349  
FC_weir1.2          293178.4            6177754.71         
FC01.33.2           293179.43           6177759.06         
FC01.32.2           293185.7            6177775.79         
FC01.31.2           293190.2            6177804.44         
FC01.30.2           293203.27           6177813.44         
FC01.29.2           293225.23           6177822.74         
FC01.28B.2          293244.29           6177840.92         
FC01.17.2           293259.37           6178016.61         
FC01.16.2           293264.81           6178069.31         
FC01.15.2           293265.33           6178099.74         
FC01.18.2           293268.68           6177979.9          
ds1.2               293268.83           6178445.47         
FC01.14.2           293272.45           6178128.39         
FC01.01.2           293272.49           6178418.3          
ds2.2               293275.57           6178503.65         
FC01.27.1           293276.68           6177861.02         
FC01.19.2           293277.72           6177964.01         
FC01.20.2           293282.37           6177951.88         
FC01.13.2           293283.21           6178164.26         
FC01.12.2           293286.77           6178187.74         
FC01.27.2           293288.38           6177865.5          
FC02.06.1           293288.42           6177736.12         
FC01.09.1           293290.77           6178207.15         
FC01.02.2           293294.95           6178400.88         
FC01.03.2           293296.31           6178391.36         
FC01.20.1           293296.65           6177917.84         
FC01.26.2           293308.88           6177861.02         
FC01.22.2           293309.82           6177898.08         
FC01.04.2           293310.74           6178390.21         
FC01.06.2           293311.05           6178325.69         
ds_weir.1           293311.9            6178847.83         
FC01.05.2           293314.82           6178357.16         
FC01.09.2           293318.27           6178256.14         
FC01.23.2           293323.52           6177886.32         
FC02.06.2           293324.46           6177764.91         
FC01.25.2           293328.23           6177863.2          
FC01.24.2           293329.73           6177876.39         
FC01.07.2           293336.15           6178290.34         
FC01.08.2           293337.61           6178275.6          
FC02.04.2           293338.74           6177809.66         
FC02.05.2           293339.0            6177793.08         
ds3.2               293339.38           6178569.15         
ds4.2               293343.05           6178680.52         
FC02.02.2           293348.31           6177861.02         
FC02.03.2           293348.62           6177828.07         
FC04.1_C.1          293431.1611470728   6177837.160147817  

[VERTICES]
;;Name              X-Coord             Y-Coord            
;;----------------  ----------------    ----------------   
FC02.04             293341.37           6177796.9          
FC02.04             293343.24           6177801.4          
FC02.04             293342.24           6177805.8          
FC02.04             293340.79           6177807.96         
FC_weir1            293174.44           6177742.89         
FC_weir1            293177.14           6177749.74         
ds_weir             293316.68           6178853.01         

