[OPTIONS]
;;Option            Value              
;;----------------  ----------------   
FLOW_UNITS          CMS                
INFILTRATION        GREEN_AMPT         
FLOW_ROUTING        DYNWAVE            
LINK_OFFSETS        DEPTH              
FORCE_MAIN_EQUATION H-W                
IGNORE_RAINFALL     YES                
IGNORE_SNOWMELT     YES                
IGNORE_GROUNDWATER  YES                
IGNORE_RDII         YES                
IGNORE_QUALITY      YES                
ALLOW_PONDING       YES                
SKIP_STEADY_STATE   YES                
SYS_FLOW_TOL        1                  
LAT_FLOW_TOL        1                  
START_DATE          01/01/2000         
START_TIME          00:00              
END_DATE            01/01/2000         
END_TIME            06:00              
REPORT_START_DATE   01/01/2000         
REPORT_START_TIME   00:00              
SWEEP_START         01/01              
SWEEP_END           01/01              
DRY_DAYS            0                  
REPORT_STEP         00:00:30           
WET_STEP            00:00:30           
DRY_STEP            00:30:00           
ROUTING_STEP        30                 
LENGTHENING_STEP    5                  
VARIABLE_STEP       0                  
MINIMUM_STEP        0.001              
INERTIAL_DAMPING    PARTIAL            
NORMAL_FLOW_LIMITED BOTH               
MIN_SURFAREA        200                
MAX_TRIALS          20                 
HEAD_TOLERANCE      0.001              
THREADS             8                  

[JUNCTIONS]
;;Name              Elev                Ymax                Y0                  Ysur                Apond              
;;----------------  ----------------    ----------------    ----------------    ----------------    ----------------   
TCC_C_0270.2        1.98542             2.3654835110473633                                                             
TCC_C_0280.2        2.31426             1.9095006048583985                                                             
TCC_C_0290.2        2.58736             2.076768303527832                                                              
TCC_C_0300.2        3.01348             2.831847377319336                                                              
TCC_C_0310.2        3.23022             2.7389987309265136                                                             
TCC_C_0320.2        3.28243             2.6973544886779783                                                             
TCC_C_0330.2        3.37957             2.368242271118164                                                              
TCC_C_0340.2        4.3                 0.0                 0.0                 0.0                 0.0                
TCC_C_2080.1        33.6756             0.0                 0.0                 0.0                 0.0                
TCC_C_2080.2        32.5344             1.385155664062502                                                              
TCC_C_2090.2        32.41               1.4774740600585972                                                             
TCC_C_2100.2        30.435000000000002  0.0                 0.0                 30.0                0.0                
TCC_C_2110.1        33.67               0.0                 0.0                 0.0                 0.0                
TCC_C_2110.2        32.439              1.4426146850585937                                                             
TCC_C_2130.1        35.0642             0.0                 0.0                 0.0                 0.0                
TCC_C_2130.2        34.6788             1.48240910644531                                                               
TCC_C_2140.2        34.4428             1.554522082519533                                                              
TCC_C_2150.2        34.3277             1.4724670837402343                                                             
TCC_C_2160.2        34.2747             1.5167161682128878                                                             
TCC_C_2170.2        33.59               1.9050370788574185                                                             
TCC_C_2180.2        33.32               1.223067932128906                                                              
TCC_C_2190.2        31.48               2.167132873535156                                                              
TCC_C_2200.2        31.31               2.435750427246095                                                              
TCC_C_2210.2        30.8                1.1773826599121087                                                             
TCC_C_2220.1        32.38               0.0                 0.0                 0.0                 0.0                
TCC_C_2230.2        28.6                0.0                 0.0                 30.0                0.0                
TCC_C_2250.1        33.3613             0.0                 0.0                 0.0                 0.0                
TCC_C_2250.2        33.2267             1.7958410461425771                                                             
TCC_C_2260.2        33.1821             1.9288619140625016                                                             
TCC_C_2280.1        19.0999             0.0                 0.0                 0.0                 0.0                
TCC_C_2280.2        18.8549             1.874147775268554                                                              
TCC_C_2290.2        18.7163             2.101098071289062                                                              
TCC_C_2300.2        18.07               3.1119496154785153                                                             
TCC_C_2310.2        17.7443             2.6335820037841806                                                             
TCC_C_2320.2        17.5914             2.5695249114990233                                                             
TCC_C_2330.2        17.4167             2.8484977539062513                                                             
TCC_C_2340.2        17.3239             3.018331750488283                                                              
TCC_C_2360.1        12.06               0.0                 0.0                 0.0                 0.0                
TCC_C_2360.2        11.95               1.2826908111572273                                                             
TCC_C_2370.2        11.5174             1.4159190917968747                                                             
TCC_C_2390.1        11.892              0.0                 0.0                 0.0                 0.0                
TCC_C_2400.1        7.1478              0.0                 0.0                 0.0                 0.0                
TCC_C_2410.1        1.62033             0.0                 0.0                 0.0                 64.0               
TCC_C_2420.1        4.7                 0.0                 0.0                 0.0                 64.0               
TCC_R_2450.1        4.1                 0.0                 0.0                 0.0                 64.0               
TCC_R_2510.1        0.09612             0.0                 0.0                 0.0                 0.0                
TCC_R_2510.2        0.1345              1.0721887617111205                                                             
TCC_R_2520.2        -0.80901            1.9977993676757813                                                             
TCC_R_2530.2        -0.866761           2.0011769841537475                                                             
TCC_R_2540.2        0.06                1.5342271947860717                                                             
TCC_R_2550.2        0.04                1.3141783094406128                                                             
TCC_R_2560.2        0.02                1.3614133405685425                                                             
TCC_R_2580.1        -0.01               1.4095683193206787                                                             
TCC_R_2590.1        -0.03               1.3679038572311402                                                             
TCC_R_2590.2        -0.26299            1.5269768259429932                                                             
TCC_R_2600.2        -1.20391            3.327515251312256                                                              
TCC_R_2620.1        0.39121             0.0                 0.0                 0.0                 0.0                
TCC_R_2620.2        0.09399             1.0566196124649048                                                             
TCC_R_2630.2        -0.21               1.407982668876648                                                              
TCC_R_2640.2        -0.22               1.3510771703720093                                                             
TCC_R_2650.2        -0.24               1.3020629787445068                                                             
TCC_R_2660.2        -0.35703            1.3891778843688964                                                             
TCC_R_2670.2        -0.48               1.8220312404632568                                                             
TCC_R_2680.2        -0.61               0.0                 0.0                 50.0                0.0                
TCC_R_2710.1        0.09227             0.0                 0.0                 0.0                 0.0                
TCC_R_2710.2        0.11                2.2782076740264894                                                             
TCC_R_2720.2        0.12                2.776824836730957                                                              
TC_B_0250.1         18.52               0.0                 0.0                 0.0                 64.0               
TC_B_0300.1         16.7                0.0                 0.0                 0.0                 64.0               
TC_B_0320.1         14.7                0.0                 0.0                 0.0                 64.0               
TC_B_0350.1         10.6                0.0                 0.0                 0.0                 120.0              
TC_B_0400.1         15.35               0.0                 0.0                 0.0                 64.0               
TC_B_0400.2         15.26               0.0                 0.0                 30.0                0.0                
TC_B_0440.1         10.1                0.0                 0.0                 0.0                 64.0               
TC_B_0450.1         7.1                 0.0                 0.0                 0.0                 200.0              
TC_B_0460.1         6.29                0.0                 0.0                 0.0                 250.0              
TC_B_0510.1         10.6                0.0                 0.0                 0.0                 64.0               
TC_B_0540.1         12.93               0.0                 0.0                 0.0                 64.0               
TC_B_0550.1         11.33               0.0                 0.0                 0.0                 64.0               
TC_B_0560.1         10.81               0.0                 0.0                 0.0                 64.0               
TC_B_0600.1         6.29                0.0                 0.0                 0.0                 64.0               
TC_B_0610.1         6.08                0.0                 0.0                 0.0                 200.0              
TC_B_0710.1         11.5                0.0                 0.0                 0.0                 64.0               
TC_B_0750.1         11.04               0.0                 0.0                 0.0                 64.0               
TC_B_0840.1         5.71                0.0                 0.0                 0.0                 64.0               
TC_B_0860.1         3.52                0.0                 0.0                 0.0                 250.0              
TC_B_0920.1         15.5                0.0                 0.0                 0.0                 64.0               
TC_B_0930.1         13.31               0.0                 0.0                 0.0                 64.0               
TC_B_1040.1         2.6                 0.0                 0.0                 0.0                 250.0              
TC_B_1080.1         -0.1                0.0                 0.0                 0.0                 400.0              
TC_B_1090.1         -0.31               0.0                 0.0                 0.0                 400.0              
TC_B_1100.1         -0.88               4.0                 0.0                 0.0                 1200.0             
TC_B_1130.1         2.47                0.0                 0.0                 0.0                 64.0               
TC_B_1140.1         2.38                0.0                 0.0                 0.0                 64.0               
TC_B_1140.2         2.42                0.0                 0.0                 30.0                0.0                
TC_B_1250.1         2.24                0.0                 0.0                 0.0                 64.0               
TC_B_1260.1         1.4                 0.0                 0.0                 0.0                 64.0               
TC_B_1270.1         0.98                0.0                 0.0                 0.0                 150.0              
TC_B_1390.1         0.67                0.0                 0.0                 0.0                 100.0              
TC_B_1400.1         0.49                0.0                 0.0                 0.0                 150.0              
TC_B_1420.1         0.1                 0.0                 0.0                 0.0                 200.0              
TC_B_1440.1         -0.2                0.0                 0.0                 0.0                 250.0              
TC_B_1460.1         -0.41               0.0                 0.0                 0.0                 250.0              
TC_B_1470.1         -0.2                0.0                 0.0                 0.0                 250.0              
TC_B_1490.1         -1.6                7.0                 0.0                 0.0                 1200.0             
TC_B_1510.1         -2.0                0.0                 0.0                 0.0                 1200.0             
TC_B_1720.1         3.22                0.0                 0.0                 0.0                 64.0               
TC_C_1220.1         3.66                0.0                 0.0                 0.0                 64.0               
TC_PC_0300.1        1.33                0.0                 0.0                 0.0                 10.0               
TC_PC_0300.2        1.82                1.6289052295684814                                                             
TC_PC_0320.1        1.84                1.6496917343139648                                                             
TC_PC_0330.1        2.08                1.9906229209899902                                                             
TC_PC_0330.2        2.12                2.014747505187988                                                              
TC_PC_0340.2        2.75                2.093787670135498                                                              
TC_PC_0350.1        41.79               0.0                 0.0                 0.0                 0.0                
TC_PC_0350.2        40.28               1.2248484802246082                                                             
TC_PC_0360.2        38.93               1.7425540161132815                                                             
TC_PC_0370.2        38.05               2.2681877136230497                                                             
TC_PC_0380.2        33.7                2.264752197265622                                                              
TC_PC_0560.2        20.8                3.0129577636718743                                                             
TC_PC_0570.2        20.49               2.559158096313478                                                              
TC_PC_0630.2        30.13               1.852299804687501                                                              
TC_PC_0670.1        29.0                0.0                 0.0                 0.0                 64.0               
TC_PC_1100.1        11.67               0.0                 0.0                 0.0                 0.0                
TC_PC_1100.2        11.03               3.4819981765747077                                                             
TC_PC_1110.2        10.79               2.4529704666137704                                                             
TC_PC_1120.2        10.75               1.939051628112793                                                              
TC_PC_1130.2        10.71               1.8204508209228507                                                             
TC_PC_1140.2        9.89                2.5231793975830072                                                             
TC_PC_1150.2        9.7                 2.784854698181153                                                              
TC_PC_1160.2        9.64                2.7737382507324213                                                             
TC_PC_1170.2        8.880000000000004   2.6124545288085894                                                             
TC_PC_1180.2        8.85                2.6063388824462894                                                             
TC_PC_1200.1        24.13               0.0                 0.0                 0.0                 0.0                
TC_PC_1200.2        23.44               6.461506423950194                                                              
TC_PC_1210.2        23.24               6.449651489257814                                                              
TC_PC_1220.2        23.15               6.2364631652832045                                                             
TC_PC_1230.2        23.05               5.874625396728515                                                              
TC_PC_1240.2        22.56               3.6251997375488294                                                             
TC_PC_1250.2        22.18               3.0041297149658206                                                             
TC_PC_1260.2        22.03               3.154129714965819                                                              
TC_PC_1270.2        21.64               3.7324365234374994                                                             
TC_PC_1280.2        20.98               1.5206752014160152                                                             
TC_PC_1290.2        20.76               2.0440180206298812                                                             
TC_PC_1300.2        20.72               3.1743061828613293                                                             
TC_PC_1310.2        20.56               2.2812857055664075                                                             
TC_PC_1320.2        20.13               1.865737075805665                                                              
TC_PC_1330.2        19.77               2.43699691772461                                                               
TC_PC_1450.2        16.2                0.0                 0.0                 0.0                 64.0               
TC_PC_1470.1        9.91                0.0                 0.0                 0.0                 0.0                
TC_PC_1470.2        9.89                0.0                 0.0                 30.0                0.0                
TC_PC_1480.2        9.83                1.7944001388549804                                                             
TC_PC_1490.2        9.35                1.676558876037598                                                              
TC_PC_1500.2        9.08                1.7981919479370116                                                             
TC_PC_1510.2        7.81                2.0948395156860355                                                             
TC_PC_1520.2        7.6                 2.0620368957519535                                                             
TC_PC_1530.2        7.53                2.2704522323608396                                                             
TC_PC_1540.2        7.33                1.7271012496948241                                                             
TC_PC_1550.2        7.3                 1.8552057266235353                                                             
TC_PC_1560.2        7.28                1.8833815765380857                                                             
TC_PC_1570.2        7.0                 2.1257858276367188                                                             
TC_PC_1580.2        6.98                2.1486010742187496                                                             
TC_PC_1820.1        4.63                0.0                 0.0                 0.0                 0.0                
TC_PC_1820.2        4.26                2.103114356994629                                                              
TC_PC_1830.2        4.2                 2.2361333847045897                                                             
TC_PC_1840.2        3.99                2.769663105010986                                                              
TC_PC_1850.2        3.4                 2.882212257385254                                                              
TC_PC_1860.2        3.08                3.1496319007873534                                                             
TC_PC_1870.2        2.89                3.128808364868164                                                              
TC_PC_2000.1        5.78                0.0                 0.0                 0.0                 0.0                
TC_PC_2000.2        5.62                1.2013624954223632                                                             
TC_PC_2290.1        2.91                0.0                 0.0                 0.0                 64.0               
TC_PC_2290.2        2.28                2.687038154602051                                                              
TC_PC_2300.2        2.01                2.3331777954101565                                                             
TC_PC_2510.2        14.73               1.5577941131591793                                                             
TC_PC_2520.2        14.22               1.281123428344726                                                              
TC_PC_2530.2        14.01               1.5184900665283205                                                             
TC_PC_2810.1        8.15                0.0                 0.0                 0.0                 0.0                
TC_PC_2810.2        7.2                 1.0921342849731444                                                             
TC_PC_3520.1        3.59                0.0                 0.0                 0.0                 64.0               
TC_PC_3520.2        3.63                0.0                 0.0                 50.0                0.0                
TC_PC_3530.2        3.62                1.9682730484008788                                                             
TC_PC_3540.2        3.6                 0.0                 0.0                 30.0                0.0                
TC_PC_3550.2        3.58                1.8138503265380859                                                             
TC_PC_3560.2        3.42                1.8550120162963868                                                             
TC_PC_3570.2        3.36                1.851118221282959                                                              
TC_PC_3580.2        3.26                2.047219982147217                                                              
TC_PC_3590.2        3.17                2.3326626586914063                                                             
TC_PC_3600.2        3.16                2.2517212295532225                                                             
TC_PC_3610.2        3.15                2.152598476409912                                                              
TC_PC_3620.2        2.49                2.8030617332458494                                                             
TC_PC_3970.2        1.14                2.3512588596343997                                                             
TC_PC_3980.2        0.72                0.0                 0.0                 50.0                0.0                
TC_PC_3990.2        0.16                0.0                 0.0                 30.0                0.0                
TC_PR_0010.1        7.32                0.0                 0.0                 0.0                 0.0                
TC_PR_0010.2        7.27                0.7443566131591801                                                             
TC_PR_0020.2        7.22                0.6898730087280276                                                             
TC_PR_0030.2        6.95                0.8783104896545408                                                             
TC_PR_0040.2        6.72                1.0933792877197268                                                             
TC_PR_0050.2        6.38                1.1946088027954103                                                             
TC_PR_0060.2        6.24                1.2393572425842283                                                             
TC_PR_0070.2        6.2                 1.233058738708496                                                              
TC_PR_0080.2        6.19                1.2993083572387691                                                             
TC_PR_0090.2        5.79                1.0968308067321777                                                             
TC_PR_0100.2        5.76                1.017336120605469                                                              
TC_PR_0110.2        5.66                1.028453197479248                                                              
TC_PR_0120.2        5.24                1.2153422927856443                                                             
TC_PR_0130.2        5.22                0.0                 0.0                 30.0                0.0                
TC_PR_0140.2        5.21                0.0                 0.0                 30.0                0.0                
TC_PR_0150.2        4.93                0.0                 0.0                 0.0                 64.0               
TC_PR_0160.1        26.27               0.0                 0.0                 0.0                 0.0                
TC_PR_0160.2        20.31               1.036967697143556                                                              
TC_PR_0170.2        19.22               0.8732998657226574                                                             
TC_PR_0180.2        19.14               0.9018586730957026                                                             
TC_PR_0190.2        18.78               1.2234446716308582                                                             
TC_PR_0200.2        18.72               0.9091275024414074                                                             
TC_PR_0210.2        17.8                1.026185226440429                                                              
TC_PR_0220.2        17.52               1.2246250915527348                                                             
TC_PR_0230.2        14.68               1.9699843597412112                                                             
TC_PR_0240.2        14.22               1.7165081787109369                                                             
TC_PR_0250.2        14.0                1.7201452255249023                                                             
TC_PR_0260.1        4.45                0.0                 0.0                 0.0                 100.0              
TC_PR_0260.2        4.2                 3.0558255195617674                                                             
TC_PR_0270.2        3.7                 2.564862060546875                                                              
TC_PR_0280.2        2.81                4.31710428237915                                                               
TC_PR_0290.2        2.18                0.0                 0.0                 30.0                0.0                
TC_PR_0390.2        33.01               2.343466033935549                                                              
TC_PR_0400.2        32.45               1.4310615539550753                                                             
TC_PR_0410.2        32.11               1.286530151367188                                                              
TC_PR_0420.2        31.9                1.526742553710939                                                              
TC_PR_0430.2        31.72               1.537427215576173                                                              
TC_PR_0440.2        31.51               1.3025991821289047                                                             
TC_PR_0450.2        31.32               1.4527890014648435                                                             
TC_PR_0460.2        31.31               1.447896423339845                                                              
TC_PR_0470.2        30.76               1.3576948547363266                                                             