[JUNCTIONS]
;;Name              Elev                Ymax                Y0                  Ysur                Apond
;;----------------  ----------------    ----------------    ----------------    ----------------    ----------------
MH-17               42.0                3.1199999999999974  0.0                 0.0                 0.0
MH-18               42.5                2.9450000000000003  0.0                 0.0                 0.0
MH-19               42.8                3.1610000000000014  0.0                 0.0                 0.0
MH-20               45.0                3.621000000000002   0.0                 0.0                 0.0
MH-21               43.5                2.5930000000000035  0.0                 0.0                 0.0
MH-22               44.0                3.2719999999999985  0.0                 0.0                 0.0

[CONDUITS]
;;Name              From Node           To Node             Length              Roughness           InOffset            OutOffset           InitFlow            MaxFlow
;;----------------  ----------------    ----------------    ----------------    ----------------    ----------------    ----------------    ----------------    ----------------
MH-17-16            MH-17               MH-16               82.38               0.014               42.0                40.1                0.0
MH-18-17            MH-18               MH-17               43.75               0.014               42.5                42.0                0.0
MH-19-18            MH-19               MH-18               39.87               0.014               42.8                42.5                0.0
MH-20-19            MH-20               MH-19               103.51              0.014               45.0                42.8                0.0
MH-21-18            MH-21               MH-18               36.13               0.014               43.5                42.5                0.0
MH-22-21            MH-22               MH-21               67.57               0.014               44.0                43.5                0.0

[LOSSES]
;;Link              Kentry              Kexit               Kavg                Flap                Seepage
;;----------------  ----------------    ----------------    ----------------    ----------------    ----------------
MH-17-16            0.0                 0.0                 0.0
MH-18-17            0.0                 0.0                 0.0
MH-19-18            0.0                 0.0                 0.0
MH-20-19            0.0                 0.0                 0.0
MH-21-18            0.0                 0.0                 0.0
MH-22-21            0.0                 0.0                 0.0

[XSECTIONS]
;;Link              XsecType            Param1              Param2              Param3              Param4              Param5              Param6
;;                  Default             Geom1               Geom2               Geom3               Geom4               Barrels             Culvert
;;                  CUSTOM              Geom1               Curve               Geom3               Geom4               Barrels
;;                  IRREGULAR           Tsect
;;                  STREET              Street
;;----------------  ----------------    ----------------    ----------------    ----------------    ----------------    ----------------    ----------------
MH-17-16            CIRCULAR            1.5                 0.0                 0.0                 0.0                 1
MH-18-17            CIRCULAR            1.25                0.0                 0.0                 0.0                 1
MH-19-18            CIRCULAR            1.0                 0.0                 0.0                 0.0                 1
MH-20-19            CIRCULAR            0.75                0.0                 0.0                 0.0                 1
MH-21-18            CIRCULAR            1.25                0.0                 0.0                 0.0                 1
MH-22-21            CIRCULAR            1.0                 0.0                 0.0                 0.0                 1

[COORDINATES]
;;Name              X-Coord             Y-Coord
;;----------------  ----------------    ----------------
MH-17               293438.121          6177909.451
MH-18               293427.817          6177866.657
MH-19               293416.824          6177828.609
MH-20               293389.824          6177728.679
MH-21               293457.774          6177846.455
MH-22               293511.318          6177805.516

