[OPTIONS]
;;Option            Value
;;----------------  ----------------
START_DATE          01/01/2017
START_TIME          00:00:00
END_DATE            01/01/2017
END_TIME            06:00:00
REPORT_STEP         00:01:00
FLOW_UNITS          CFS
INFILTRATION        HORTON
FORCE_MAIN_EQUATION H-W
FLOW_ROUTING        DYNWAVE
ALLOW_PONDING       YES
ROUTING_STEP        00:00:01
LINK_OFFSETS        ELEVATION

[RAINGAGES]
;;Name              Form                Intvl               SnowCatchDeficiency Format              Param1              Param2              Param3
;;                                                                              TIMESERIES          Tseries
;;                                                                              FILE                Fname               Sta                 Units
;;----------------  ----------------    ----------------    ----------------    ----------------    ----------------    ----------------    ----------------
Rainfall            CUMULATIVE          2.0                 1.0                 TIMESERIES          Rainfall

[SUBCATCHMENTS]
;;Name              Rain Gage           Outlet              Area                PctImperv           Width               PctSlope            CurbLen             SnowPack
;;----------------  ----------------    ----------------    ----------------    ----------------    ----------------    ----------------    ----------------    ----------------
ST11#1              Rainfall            ST11                0.447               75.0                150.0               1.0                 0.0
ST12#1              Rainfall            ST12                4.523               100.0               500.0               1.0                 0.0
ST131#1             Rainfall            ST131               0.173               75.0                100.0               1.0                 0.0
ST165#1             Rainfall            ST165               44.73               83.0                1800.0              0.43                0.0
ST166#1             Rainfall            ST166               27.83               75.0                2000.0              2.0                 0.0
ST170#1             Rainfall            ST170               5.33                72.0                500.0               2.0                 0.0
ST19#1              Rainfall            ST19                2.007               75.0                100.0               1.0                 0.0
ST2#1               Rainfall            ST2                 1.063               75.0                350.0               1.25                0.0
ST34#1              Rainfall            ST34                50.496              15.0                1500.0              0.37                0.0
ST35#1              Rainfall            ST35                1.271               75.0                100.0               1.0                 0.0
ST36#1              Rainfall            ST36                0.762               75.0                100.0               1.0                 0.0
ST37#1              Rainfall            ST37                1.019               75.0                100.0               1.0                 0.0
ST40#1              Rainfall            ST40                0.881               75.0                100.0               1.0                 0.0
ST41#1              Rainfall            ST41                0.981               75.0                100.0               1.0                 0.0
ST42#1              Rainfall            ST42                1.512               75.0                100.0               1.0                 0.0
ST44#1              Rainfall            ST44                1.704               75.0                100.0               1.0                 0.0
ST45#1              Rainfall            ST45                1.752               75.0                100.0               1.0                 0.0
ST46#1              Rainfall            ST46                2.149               75.0                375.0               1.0                 0.0
ST47#1              Rainfall            ST47                1.263               75.0                200.0               1.25                0.0
ST49#1              Rainfall            ST49                1.01                85.0                300.0               1.0                 0.0
ST5#1               Rainfall            ST5                 1.315               75.0                100.0               1.0                 0.0
ST50#1              Rainfall            ST50                1.437               75.0                100.0               1.0                 0.0
ST51#1              Rainfall            ST51                0.567               75.0                100.0               1.0                 0.0
ST53#1              Rainfall            ST53                0.693               75.0                100.0               1.0                 0.0
ST55#1              Rainfall            ST55                0.81                75.0                100.0               1.0                 0.0
ST56#1              Rainfall            ST56                1.038               75.0                100.0               1.0                 0.0
ST57#1              Rainfall            ST57                0.449               75.0                100.0               1.0                 0.0
ST59#1              Rainfall            ST59                0.498               75.0                100.0               1.0                 0.0
ST60#1              Rainfall            ST60                0.914               75.0                100.0               1.0                 0.0
ST61#1              Rainfall            ST61                0.543               75.0                100.0               1.0                 0.0

[SUBAREAS]
;;Subcatchment      Nimp                Nperv               Simp                Sperv               PctZero             RouteTo             PctRouted
;;----------------  ----------------    ----------------    ----------------    ----------------    ----------------    ----------------    ----------------
ST11#1              0.014               0.03                0.1                 0.25                25.0                OUTLET
ST12#1              0.014               0.03                0.1                 0.25                25.0                OUTLET
ST131#1             0.014               0.03                0.1                 0.25                25.0                OUTLET
ST165#1             0.014               0.03                0.1                 0.25                25.0                OUTLET
ST166#1             0.014               0.03                0.1                 0.25                25.0                OUTLET
ST170#1             0.014               0.03                0.1                 0.25                25.0                OUTLET
ST19#1              0.014               0.03                0.1                 0.25                25.0                OUTLET
ST2#1               0.014               0.03                0.1                 0.25                25.0                OUTLET
ST34#1              0.014               0.03                0.1                 0.25                25.0                OUTLET
ST35#1              0.014               0.03                0.1                 0.25                25.0                OUTLET
ST36#1              0.014               0.03                0.1                 0.25                25.0                OUTLET
ST37#1              0.014               0.03                0.1                 0.25                25.0                OUTLET
ST40#1              0.014               0.03                0.1                 0.25                25.0                OUTLET
ST41#1              0.014               0.03                0.1                 0.25                25.0                OUTLET
ST42#1              0.014               0.03                0.1                 0.25                25.0                OUTLET
ST44#1              0.014               0.03                0.1                 0.25                25.0                OUTLET
ST45#1              0.014               0.03                0.1                 0.25                25.0                OUTLET
ST46#1              0.014               0.03                0.1                 0.25                25.0                OUTLET
ST47#1              0.014               0.03                0.1                 0.25                25.0                OUTLET
ST49#1              0.014               0.03                0.1                 0.25                25.0                OUTLET
ST5#1               0.014               0.03                0.1                 0.25                25.0                OUTLET
ST50#1              0.014               0.03                0.1                 0.25                25.0                OUTLET
ST51#1              0.014               0.03                0.1                 0.25                25.0                OUTLET
ST53#1              0.014               0.03                0.1                 0.25                25.0                OUTLET
ST55#1              0.014               0.03                0.1                 0.25                25.0                OUTLET
ST56#1              0.014               0.03                0.1                 0.25                25.0                OUTLET
ST57#1              0.014               0.03                0.1                 0.25                25.0                OUTLET
ST59#1              0.014               0.03                0.1                 0.25                25.0                OUTLET
ST60#1              0.014               0.03                0.1                 0.25                25.0                OUTLET
ST61#1              0.014               0.03                0.1                 0.25                25.0                OUTLET

[INFILTRATION]
;;Subcatchment      p1                  p2                  p3                  p4                  p5                  Method
;;----------------  ----------------    ----------------    ----------------    ----------------    ----------------    ----------------
ST11#1              2.0                 0.4                 3.6                 0.0                 0.0                 HORTON
ST12#1              2.0                 0.4                 3.6                 0.0                 0.0                 HORTON
ST131#1             2.0                 0.4                 3.6                 0.0                 0.0                 HORTON
ST165#1             2.0                 0.4                 3.6                 0.0                 0.0                 HORTON
ST166#1             2.0                 0.4                 3.6                 0.0                 0.0                 HORTON
ST170#1             2.0                 0.4                 3.6                 0.0                 0.0                 HORTON
ST19#1              2.0                 0.4                 3.6                 0.0                 0.0                 HORTON
ST2#1               2.0                 0.4                 3.6                 0.0                 0.0                 HORTON
ST34#1              2.0                 0.4                 3.6                 0.0                 0.0                 HORTON
ST35#1              2.0                 0.4                 3.6                 0.0                 0.0                 HORTON
ST36#1              2.0                 0.4                 3.6                 0.0                 0.0                 HORTON
ST37#1              2.0                 0.4                 3.6                 0.0                 0.0                 HORTON
ST40#1              2.0                 0.4                 3.6                 0.0                 0.0                 HORTON
ST41#1              2.0                 0.4                 3.6                 0.0                 0.0                 HORTON
ST42#1              2.0                 0.4                 3.6                 0.0                 0.0                 HORTON
ST44#1              2.0                 0.4                 3.6                 0.0                 0.0                 HORTON
ST45#1              2.0                 0.4                 3.6                 0.0                 0.0                 HORTON
ST46#1              2.0                 0.4                 3.6                 0.0                 0.0                 HORTON
ST47#1              2.0                 0.4                 3.6                 0.0                 0.0                 HORTON
ST49#1              2.0                 0.4                 3.6                 0.0                 0.0                 HORTON
ST5#1               2.0                 0.4                 3.6                 0.0                 0.0                 HORTON
ST50#1              2.0                 0.4                 3.6                 0.0                 0.0                 HORTON
ST51#1              2.0                 0.4                 3.6                 0.0                 0.0                 HORTON
ST53#1              2.0                 0.4                 3.6                 0.0                 0.0                 HORTON
ST55#1              2.0                 0.4                 3.6                 0.0                 0.0                 HORTON
ST56#1              2.0                 0.4                 3.6                 0.0                 0.0                 HORTON
ST57#1              2.0                 0.4                 3.6                 0.0                 0.0                 HORTON
ST59#1              2.0                 0.4                 3.6                 0.0                 0.0                 HORTON
ST60#1              2.0                 0.4                 3.6                 0.0                 0.0                 HORTON
ST61#1              2.0                 0.4                 3.6                 0.0                 0.0                 HORTON

[JUNCTIONS]
;;Name              Elev                Ymax                Y0                  Ysur                Apond
;;----------------  ----------------    ----------------    ----------------    ----------------    ----------------
MH10                615.5939            4.775100000000066   0.0                 0.0                 0.0
MH18                614.9852            4.676800000000071   0.0                 0.0                 0.0
MH54                615.7209            2.4891000000000076  0.0                 0.0                 0.0
MH66                615.29              4.249000000000024   0.0                 0.0                 0.0
MH7                 614.9823            3.577699999999936   0.0                 0.0                 0.0
MH8                 614.7663            4.2736999999999625  0.0                 0.0                 0.0
ST11                615.3389            3.915100000000052   0.0                 0.0                 0.0
ST12                616.3               4.560000000000059   0.0                 0.0                 0.0
ST131               615.53              3.7660000000000764  0.0                 0.0                 0.0
ST157               615.7379            4.484100000000012   0.0                 0.0                 0.0
ST16                615.5507            3.314300000000003   0.0                 0.0                 0.0
ST164               613.5               6.5                 0.0                 0.0                 0.0
ST165               613.4               4.5                 0.0                 0.0                 0.0
ST166               610.3799            2.920099999999934   0.0                 0.0                 0.0
ST169               615.665             7.335000000000036   0.0                 0.0                 0.0
ST17                615.4339            3.1930999999999585  0.0                 0.0                 0.0
ST170               617.3               5.7000000000000455  0.0                 0.0                 0.0
ST2                 615.12              4.6059999999999945  0.0                 0.0                 0.0
ST3                 615.1679            3.073099999999954   0.0                 0.0                 0.0
ST34                609.186             4.0                 0.0                 0.0                 0.0
ST35                616.1723            2.810699999999997   0.0                 0.0                 0.0
ST36                614.8923            2.830699999999979   0.0                 0.0                 0.0
ST37                614.8303            3.1577000000000908  0.0                 0.0                 0.0
ST4                 615.0375            2.8524999999999636  0.0                 0.0                 0.0
ST40                615.387             4.0                 0.0                 0.0                 0.0
ST41                615.708             4.814000000000078   0.0                 0.0                 0.0
ST42                616.018             4.187999999999988   0.0                 0.0                 0.0
ST44                613.493             4.0                 0.0                 0.0                 0.0
ST45                613.346             4.0                 0.0                 0.0                 0.0
ST46                616.3638            2.155200000000036   0.0                 0.0                 0.0
ST47                616.2786            2.0833999999999833  0.0                 0.0                 0.0
ST48                616.2616            2.9793999999999414  0.0                 0.0                 0.0
ST49                615.5               3.0                 0.0                 0.0                 0.0
ST50                615.7553            2.4006999999999152  0.0                 0.0                 0.0
ST51                615.6549            2.399099999999976   0.0                 0.0                 0.0
ST53                614.226             4.0                 0.0                 0.0                 0.0
ST55                614.362             4.0                 0.0                 0.0                 0.0
ST56                615.5672            3.7327999999999975  0.0                 0.0                 0.0
ST57                614.236             4.0                 0.0                 0.0                 0.0
ST59                614.038             4.0                 0.0                 0.0                 0.0
ST60                615.0202            3.0297999999999092  0.0                 0.0                 0.0
ST61                615.1137            2.6912999999999556  0.0                 0.0                 0.0

[OUTFALLS]
;;Name              Elev                Type                Param1              Gated               RouteTo
;;                                      FREE                                    Gated               RouteTo
;;                                      NORMAL                                  Gated               RouteTo
;;                                      FIXED               Stage               Gated               RouteTo
;;                                      TIDAL               Tcurve              Gated               RouteTo
;;                                      TIMESERIES          Tseries             Gated               RouteTo
;;----------------  ----------------    ----------------    ----------------    ----------------    ----------------
MH58                614.865             FIXED               614.865
ST168               616.5               FIXED               616.5
ST19                614.5               FIXED               614.5
ST33                606.409             FIXED               607.8               No
ST5                 614.7               FIXED               614.7
ST9                 614.5               FIXED               614.5

[CONDUITS]
;;Name              From Node           To Node             Length              Roughness           InOffset            OutOffset           InitFlow            MaxFlow
;;----------------  ----------------    ----------------    ----------------    ----------------    ----------------    ----------------    ----------------    ----------------
5000                ST11                ST2                 148.01              0.014               615.3389            615.12              0.0
5001                ST3                 ST4                 65.21               0.014               615.1679            615.0375            0.0
5002                ST4                 ST5                 135.0               0.014               615.0375            614.7               0.0
5003                MH66                MH7                 307.69              0.014               615.29              614.9823            0.0
5004                MH8                 ST9                 145.0               0.014               614.7663            614.6213
5005                MH10                ST11                170.0               0.014               615.5939            615.3389            0.0
5006                ST12                MH10                138.06              0.014               616.3               615.9548            0.0
5009                ST17                ST3                 266.02              0.014               615.4339            615.1679            0.0
5010                MH18                ST19                185.23              0.014               614.9852            614.8               0.0
5041                ST165               ST166               901.12              0.014               613.5               610.3799            0.0
5042                ST169               ST168               98.13               0.014               616.665             616.5               0.0
5043                ST35                ST36                128.0               0.014               616.1723            614.8923
5044                ST36                ST37                31.0                0.014               614.8923            614.8303
5046                ST40                ST41                36.97               0.014               615.7329            615.708
5048                ST44                ST4                 15.0                0.014               615.087             615.0375
5049                ST45                ST44                31.0                0.014               613.346             613.493
5050                ST37                MH8                 21.34               0.014               614.8303            614.7663
5051                MH7                 MH8                 216.0               0.014               614.9823            614.7663
5055                ST166               ST34                397.99              0.014               610.3799            609.186             0.0
5102                ST46                ST47                42.63               0.014               616.3638            616.2786
5103                ST47                ST48                17.08               0.014               616.2786            616.2616
5104                ST49                ST47                44.73               0.014               616.4127            616.2786
5105                ST50                ST51                45.64               0.014               615.7553            615.6549
5106                ST51                MH66                23.18               0.014               615.6549            615.539
5106.1              MH54                ST51                44.58               0.014               615.7209            615.6549            0.0
5108                ST53                MH54                15.5                0.014               615.7441            615.7209            0.0
5109                ST55                ST56                42.77               0.014               615.6441            615.5672
5110                ST57                MH58                15.76               0.014               614.8728            614.865
5112                ST2                 MH18                131.74              0.014               615.12              614.9852            0.0
5113                ST59                ST60                56.89               0.014               615.077             615.0202
5114                ST60                MH7                 18.95               0.014               615.0202            614.9823
5115                ST61                ST60                46.78               0.014               615.1137            615.0202
5127                ST34                ST33                100.0               0.014               609.186             606.409             0.0
5130                ST42                ST41                124.0               0.014               616.018             615.708             0.0
5132                ST16                ST17                233.73              0.014               615.5507            615.4339            0.0
5146                ST56                ST16                33.0                0.014               615.5672            615.5507            0.0
5277                ST131               MH66                149.43              0.014               615.539             615.3895
5315                ST157               MH10                80.0                0.014               615.7379            615.5939            0.0
5316                ST48                ST157               261.86              0.014               616.2616            615.7379            0.0
Gutter              ST41                ST56                281.73              0.014               619.622             618.286             0.0
Pipe                ST41                ST56                281.73              0.014               615.708             615.5672            0.0

[WEIRS]
;;Name              From Node           To Node             Type                CrestHt             Cd                  Gated               EC                  Cd2                 Sur                 Road_Width          Road_Surf
;;----------------  ----------------    ----------------    ----------------    ----------------    ----------------    ----------------    ----------------    ----------------    ----------------    ----------------    ----------------
Outlet_Weir         ST164               ST165               TRANSVERSE          617.0               3.0                 No                  0                   0.0                 Yes

[ORIFICES]
;;Name              From Node           To Node             Type                Offset              Qcoeff              Gated               CloseTime
;;----------------  ----------------    ----------------    ----------------    ----------------    ----------------    ----------------    ----------------
Orifce              ST164               ST165               SIDE                613.5               0.6

[LOSSES]
;;Link              Kentry              Kexit               Kavg                Flap                Seepage
;;----------------  ----------------    ----------------    ----------------    ----------------    ----------------
5000                0.0                 0.0                 0.0
5001                0.0                 0.0                 0.0
5002                0.0                 0.0                 0.0
5003                0.0                 0.0                 0.0
5004                0.0                 0.0                 0.0
5005                0.5                 1.0                 0.0
5006                0.5                 1.0                 0.0
5009                0.0                 0.0                 0.0
5010                0.0                 0.0                 0.0
5041                0.0                 0.0                 0.0
5042                0.5                 1.0                 0.0
5043                0.0                 0.0                 0.0
5044                0.0                 0.0                 0.0
5046                0.0                 0.0                 0.0
5048                0.0                 0.0                 0.0
5049                0.0                 0.0                 0.0
5050                0.0                 0.0                 0.0
5051                0.0                 0.0                 0.0
5055                0.0                 0.0                 0.0
5102                0.0                 0.0                 0.0
5103                0.0                 0.0                 0.0
5104                0.0                 0.0                 0.0
5105                0.0                 0.0                 0.0
5106                0.0                 0.0                 0.0
5106.1              0.0                 0.0                 0.0
5108                0.0                 0.0                 0.0
5109                0.0                 0.0                 0.0
5110                0.0                 0.0                 0.0
5112                0.5                 1.0                 0.0
5113                0.0                 0.0                 0.0
5114                0.0                 0.0                 0.0
5115                0.0                 0.0                 0.0
5127                0.5                 1.0                 0.0
5130                0.0                 0.0                 0.0
5132                0.0                 0.0                 0.0
5146                0.0                 0.0                 0.0
5277                0.0                 0.0                 0.0
5315                0.0                 0.0                 0.0
5316                0.0                 0.0                 0.0
Gutter              0.0                 0.0                 0.0
Pipe                0.0                 0.0                 0.0

[XSECTIONS]
;;Link              XsecType            Param1              Param2              Param3              Param4              Param5              Param6