;;EPASWMM 5.1.012
[TITLE]
 

[OPTIONS]
 FLOW_UNITS            CMS
 INFILTRATION          HORTON
 FLOW_ROUTING          DYNWAVE
 START_DATE            01/01/2014
 START_TIME            00:00:00
 REPORT_START_DATE     01/01/2014
 REPORT_START_TIME     00:00:00
 END_DATE              01/01/2014
 END_TIME              03:00:00
 REPORT_STEP           00:10:00
 WET_STEP              00:00:05
 DRY_STEP              24:00:00
 ROUTING_STEP          00:00:05
 ALLOW_PONDING         NO
 INERTIAL_DAMPING      PARTIAL
 VARIABLE_STEP         0.750000
 LENGTHENING_STEP      0.000000
 MIN_SURFAREA          0.000000
 NORMAL_FLOW_LIMITED   FROUDE
 SKIP_STEADY_STATE     NO
 IGNORE_RAINFALL       NO
 FORCE_MAIN_EQUATION   H-W
 LINK_OFFSETS          DEPTH
 COMPATIBILITY         5

[REPORT]
 INPUT YES
 CONTINUITY YES
 FLOWSTATS YES
 CONTROLS NO
 SUBCATCHMENTS ALL
 NODES ALL
 LINKS ALL

[RAINGAGES]
;;                 Rain      Recd.  Snow   Data       Source           Station    Rain  Start
;;Name             Type      Freq.  Catch  Source     Name             ID         Units Date
;;------------------------------------------------------------------------------------------------
  GCC~25min~100~Yr VOLUME    0.08333 1.0    TIMESERIES RN#52            
  GCC~60min~100~Yr VOLUME    0.08333 1.0    TIMESERIES RN#54            

[JUNCTIONS]
;;                 Invert     Max.       Init.      Surcharge  Ponded
;;Name             Elev.      Depth      Depth      Depth      Area
;;------------------------------------------------------------------------
  Node267          222.781    15.881     0         
  Node270          512.45     22.404     0         
  Node272          241.044    22.404     0         
  Node273          187.835    15.881     0         
  Node274          207.204    6.211      0         
  Node275          175.891    13.865     0         
  Node276          148.52     16.638     0         
  Node277          204.917    20.695     0         
  Node278          220.153    9.216      0         
  Node280          271.848    15.299     0         
  Node292.1        178.79     12.451     0         
  Node299          229.021    0.001      0         
  Node300          162.604    0.001      0         
  Node301          171.304    0.001      0         
  Node302          120.555    0.001      0         
  Node303          113.24     0.001      0         
  Node304          161.585    0.001      0         
  Node305          173.546    0.001      0         
  Node306          146.764    0.001      0         

[STORAGE]
;;                 Invert   Max.       Init.        Shape       Shape                           Ponded        Evap. 
;;Name             Elev.    Depth      Depth        Curve       Params                          Area          Frac. 
;;------------------------------------------------------------------------------------------------------------------
[SUBCATCHMENTS]
;;                                                   Total    Pcnt.             Pcnt.    Curb     Snow
;;Name             Raingage         Outlet           Area     Imperv   Width    Slope    Length   Pack
;;----------------------------------------------------------------------------------------------------
  Node267#1        GCC~25min~100~Yr Node267          46.136   0        1        3500     0                
  Node267#2        GCC~60min~100~Yr Node267          19.794   0        1        3600     0                
  Node270#1        GCC~25min~100~Yr Node270          5.391    0        1        2200     0                
  Node270#2        GCC~60min~100~Yr Node270          6.405    0        1        2300     0                
  Node272#1        GCC~25min~100~Yr Node272          17.676   0        1        4500     0                
  Node272#2        GCC~60min~100~Yr Node272          4.193    0        1        4800     0                
  Node273#1        GCC~25min~100~Yr Node273          12.108   0        1        4000     0                
  Node273#2        GCC~60min~100~Yr Node273          5.142    0        1        5000     0                
  Node274#1        GCC~25min~100~Yr Node274          7.789    0        1        5200     0                
  Node276#1        GCC~25min~100~Yr Node276          20.402   0        1        4000     0                
  Node276#2        GCC~60min~100~Yr Node276          18.537   0        1        3600     0                
  Node278#1        GCC~25min~100~Yr Node278          6.267    0        1        1800     0                
  Node278#2        GCC~60min~100~Yr Node278          22.716   0        1        3300     0                
  Node278#3        GCC~60min~100~Yr Node278          6.902    0        1        3800     0                
  Node280#1        GCC~25min~100~Yr Node280          10.655   0        1        6000     0                
  Node280#2        GCC~60min~100~Yr Node280          11.769   0        1        4700     0                
  Node292.1#1      GCC~25min~100~Yr Node292.1        18.538   0        1        3600     0                
  Node299#1        GCC~60min~100~Yr Node299          7.352    0        1        5100     0                
  Node300#1        GCC~60min~100~Yr Node300          7.113    0        1        4000     0                
  Node301#1        GCC~60min~100~Yr Node301          6.413    0        1        3700     0                
  Node302#1        GCC~60min~100~Yr Node302          16.269   0        1        3400     0                
  Node303#1        GCC~60min~100~Yr Node303          14.557   0        1        3900     0                
  Node304#1        GCC~60min~100~Yr Node304          11.516   0        1        3400     0                
  Node305#1        GCC~60min~100~Yr Node305          4.868    0        1        4300     0                
  Node306#1        GCC~60min~100~Yr Node306          9.814    0        1        3300     0                

[SUBAREAS]
;;Subcatchment     N-Imperv   N-Perv     S-Imperv   S-Perv     PctZero    RouteTo    PctRouted
;;--------------------------------------------------------------------------------------------
  Node267#1        0.02       0.04       0          0          0          OUTLET     
  Node267#2        0.02       0.04       0          0          0          OUTLET     
  Node270#1        0.02       0.04       0          0          0          OUTLET     
  Node270#2        0.02       0.04       0          0          0          OUTLET     
  Node272#1        0.02       0.04       0          0          0          OUTLET     
  Node272#2        0.02       0.04       0          0          0          OUTLET     
  Node273#1        0.02       0.04       0          0          0          OUTLET     
  Node273#2        0.02       0.04       0          0          0          OUTLET     
  Node274#1        0.02       0.04       0          0          0          OUTLET     
  Node276#1        0.02       0.04       0          0          0          OUTLET     
  Node276#2        0.02       0.04       0          0          0          OUTLET     
  Node278#1        0.02       0.04       0          0          0          OUTLET     
  Node278#2        0.02       0.04       0          0          0          OUTLET     
  Node278#3        0.02       0.04       0          0          0          OUTLET     
  Node280#1        0.02       0.04       0          0          0          OUTLET     
  Node280#2        0.02       0.04       0          0          0          OUTLET     
  Node292.1#1      0.02       0.04       0          0          0          OUTLET     
  Node299#1        0.02       0.04       0          0          0          OUTLET     
  Node300#1        0.02       0.04       0          0          0          OUTLET     
  Node301#1        0.02       0.04       0          0          0          OUTLET     
  Node302#1        0.02       0.04       0          0          0          OUTLET     
  Node303#1        0.02       0.04       0          0          0          OUTLET     
  Node304#1        0.02       0.04       0          0          0          OUTLET     
  Node305#1        0.02       0.04       0          0          0          OUTLET     
  Node306#1        0.02       0.04       0          0          0          OUTLET     

[INFILTRATION]
;;Subcatchment     Suction    Conduct    InitDef
;;------------------------------------------------
  Node267#1        0          0          0         
  Node267#2        0          0          0         
  Node270#1        0          0          0         
  Node270#2        0          0          0         
  Node272#1        0          0          0         
  Node272#2        0          0          0         
  Node273#1        0          0          0         
  Node273#2        0          0          0         
  Node274#1        0          0          0         
  Node276#1        0          0          0         
  Node276#2        0          0          0         
  Node278#1        0          0          0         
  Node278#2        0          0          0         
  Node278#3        0          0          0         
  Node280#1        0          0          0         
  Node280#2        0          0          0         
  Node292.1#1      0          0          0         
  Node299#1        0          0          0         
  Node300#1        0          0          0         
  Node301#1        0          0          0         
  Node302#1        0          0          0         
  Node303#1        0          0          0         
  Node304#1        0          0          0         
  Node305#1        0          0          0         
  Node306#1        0          0          0         

[RDII]
;;                                                    
;;Name             UH Group          Sewer Area
;;----------------------------------------------------------------------------------------------------

[OUTFALLS]
;;                 Invert     Outfall    Stage/Table      Tide
;;Name             Elev.      Type       Time Series      Gate
;;------------------------------------------------------------

[CONDUITS]
;;                 Inlet            Outlet                      Manning    Inlet      Outlet     Init.
;;Name             Node             Node             Length     N          Height     Height     Flow
;;------------------------------------------------------------------------------------------------------------

[LOSSES]
;;                               
;;Name             Kentry           Kexit            Kavg 
;;---------------------------------------------------------

[PUMPS]
;;                 Inlet            Outlet           Pump             Initial   Startup      Shutoff
;;Name             Node             Node             Curve            Status    Depth        Depth
;;---------------------------------------------------------------------------------------------------------------

[ORIFICES]
;;                 Inlet            Outlet                        Crest     Disch.     Flap
;;Name             Node             Node             Type         Height     Coeff.     Gate
;;------------------------------------------------------------------------------------------

[OUTLETS]
;;Name             From Node        To Node     Offset     Type           QTable/Qcoeff     Qexpon     Gated
;;----------------------------------------------------------------------------------------------------------

[WEIRS]
;;                     Inlet            Outlet                           Crest     Disch.    Flap      End       End
;;Name                 Node             Node             Type            Height    Coeff.    Gate      Coeff.    Con.
;;-------------------------------------------------------------------------------------------------------------------

[XSECTIONS]
;;Link             Shape         Geom1      Geom2      Geom3      Geom4      Barrels    Culvert
;;--------------------------------------------------------------------------------------------

[TRANSECTS]
[DWF]
;;                                  Average    Time
;;Node             Parameter        Value      Patterns
;;-----------------------------------------------------

[POLLUTANTS]
;;                 Mass   Rain       GW         I&I        Decay      Snow
;;Name             Units  Conc.      Conc.      Conc.      Coeff.     Only  Co-Pollutant
;;------------------------------------------------------------------------------------------
  BOD5             MG/L   0          0          0          0          NO     0   
  TKN              MG/L   0          0          0          0          NO     0   
  Total~Lead       MG/L   0          0          0          0          NO     0   
  Total~Copper     MG/L   0          0          0          0          NO     0   
  NO2-N+NO3-N1     MG/L   0          0          0          0          NO     0   
  Total~soluble~solids MG/L   0          0          0          0          NO     0   
  Total~phosphorus MG/L   0          0          0          0          NO     0   
  Soluble~phosphorus MG/L   0          0          0          0          NO     0   
  Total~Zinc       MG/L   0          0          0          0          NO     0   

[LANDUSES]
;;                 Cleaning   Fraction   Last
;;Name             Interval   Available  Cleaned
;;-------------------------------------------------
  Residential      0          0          0         
  Commercial       0          0          0         
  Open/Nonurban    0          0          0         
  Sample~Snow~Pack 0          0          0         

[COVERAGES]
;;Subcatchment     Landuse          Percent
;;--------------------------------------------

[BUILDUP]
;;LandUse          Pollutant        Function   Coeff1   Coeff2   Coeff3   Normalizer
;;----------------------------------------------------------------------------------

[WASHOFF]
;;                                                               Clean.   BMP   
;;LandUse          Pollutant        Function   Coeff1   Coeff2   Effic.   Effic.
;;------------------------------------------------------------------------------

[INFLOWS]
;;                                                   Param           Units             Scale             Baseline
;;Node             Parameter        Time Series      Type            Factor            Factor             Value
;;---------------------------------------------------------------------------------------------------------------

[TIMESERIES]
;;Name             Date       Time       Value
;;-------------------------------------------------
;;RAINFALL
  RN#52                       0.00000    4.6692    
  RN#52                       0.08333    6.7444    
  RN#52                       0.16667    9.079     
  RN#52                       0.25000    2.8534    
  RN#52                       0.33333    2.594     
  RN#52                       0.41667    0.0
  RN#54                       0.00000    1.419     
  RN#54                       0.08333    2.409     
  RN#54                       0.16667    5.313     
  RN#54                       0.25000    3.828     
  RN#54                       0.33333    7.161     
  RN#54                       0.41667    3.3       
  RN#54                       0.50000    2.97      
  RN#54                       0.58333    1.98      
  RN#54                       0.66667    1.716     
  RN#54                       0.75000    1.155     
  RN#54                       0.83333    0.99      
  RN#54                       0.91667    0.759     
  RN#54                       1.00000    0.0
;;-------------------------------------------------
;;INFLOW

[PATTERNS]
;;Name             Type       Multipliers
;;----------------------------------------------------------------------
  DOUBLEWD         HOURLY     1         
  DOUBLEWD                    1         
  DOUBLEWD                    1         
  DOUBLEWD                    1         
  DOUBLEWD                    1         
  DOUBLEWD                    1         
  DOUBLEWD                    1         
  DOUBLEWD                    1         
  DOUBLEWD                    1         
  DOUBLEWD                    1         
  DOUBLEWD                    1         
  DOUBLEWD                    1         
  DOUBLEWD                    1         
  DOUBLEWD                    1         
  DOUBLEWD                    1         
  DOUBLEWD                    1         
  DOUBLEWD                    1         
  DOUBLEWD                    1         
  DOUBLEWD                    1         
  DOUBLEWD                    1         
  DOUBLEWD                    1         
  DOUBLEWD                    1         
  DOUBLEWD                    1         
  DOUBLEWD                    1         
  DOUBLED          DAILY      2         
  DOUBLED                     2         
  DOUBLED                     2         
  DOUBLED                     2         
  DOUBLED                     2         
  DOUBLED                     2         
  DOUBLED                     2         
  TRIPLEWD         HOURLY     1         
  TRIPLEWD                    1         
  TRIPLEWD                    1         
  TRIPLEWD                    1         
  TRIPLEWD                    1         
  TRIPLEWD                    1         
  TRIPLEWD                    1         
  TRIPLEWD                    1         
  TRIPLEWD                    1         
  TRIPLEWD                    1         
  TRIPLEWD                    1         
  TRIPLEWD                    1         
  TRIPLEWD                    1         
  TRIPLEWD                    1         
  TRIPLEWD                    1         
  TRIPLEWD                    1         
  TRIPLEWD                    1         
  TRIPLEWD                    1         
  TRIPLEWD                    1         
  TRIPLEWD                    1         
  TRIPLEWD                    1         
  TRIPLEWD                    1         
  TRIPLEWD                    1         
  TRIPLEWD                    1         
  TRIPLED          DAILY      3         
  TRIPLED                     3         
  TRIPLED                     3         
  TRIPLED                     3         
  TRIPLED                     3         
  TRIPLED                     3         
  TRIPLED                     3         
  DWF~PatternWD    HOURLY     0.76      
  DWF~PatternWD               0.71      
  DWF~PatternWD               0.67      
  DWF~PatternWD               0.64      
  DWF~PatternWD               0.62      
  DWF~PatternWD               0.64      
  DWF~PatternWD               0.71      
  DWF~PatternWD               0.95      
  DWF~PatternWD               1.36      
  DWF~PatternWD               1.48      
  DWF~PatternWD               1.45      
  DWF~PatternWD               1.26      
  DWF~PatternWD               1.07      
  DWF~PatternWD               0.98      
  DWF~PatternWD               0.93      
  DWF~PatternWD               0.9       
  DWF~PatternWD               0.88      
  DWF~PatternWD               0.95      
  DWF~PatternWD               1.24      
  DWF~PatternWD               1.3       
  DWF~PatternWD               1.14      
  DWF~PatternWD               1.07      
  DWF~PatternWD               0.95      
  DWF~PatternWD               0.88      
  DWF~PatternD     DAILY      1         
  DWF~PatternD                1         
  DWF~PatternD                1         
  DWF~PatternD                1         
  DWF~PatternD                1         
  DWF~PatternD                1         
  DWF~PatternD                1         
  TENFOLDWD        HOURLY     1         
  TENFOLDWD                   1         
  TENFOLDWD                   1         
  TENFOLDWD                   1         
  TENFOLDWD                   1         
  TENFOLDWD                   1         
  TENFOLDWD                   1         
  TENFOLDWD                   1         
  TENFOLDWD                   1         
  TENFOLDWD                   1         
  TENFOLDWD                   1         
  TENFOLDWD                   1         
  TENFOLDWD                   1         
  TENFOLDWD                   1         
  TENFOLDWD                   1         
  TENFOLDWD                   1         
  TENFOLDWD                   1         
  TENFOLDWD                   1         
  TENFOLDWD                   1         
  TENFOLDWD                   1         
  TENFOLDWD                   1         
  TENFOLDWD                   1         
  TENFOLDWD                   1         
  TENFOLDWD                   1         
  TENFOLDD         DAILY      10        
  TENFOLDD                    10        
  TENFOLDD                    10        
  TENFOLDD                    10        
  TENFOLDD                    10        
  TENFOLDD                    10        
  TENFOLDD                    10        
  CONSTANTWD       HOURLY     1         
  CONSTANTWD                  1         
  CONSTANTWD                  1         
  CONSTANTWD                  1         
  CONSTANTWD                  1         
  CONSTANTWD                  1         
  CONSTANTWD                  1         
  CONSTANTWD                  1         
  CONSTANTWD                  1         
  CONSTANTWD                  1         
  CONSTANTWD                  1         
  CONSTANTWD                  1         
  CONSTANTWD                  1         
  CONSTANTWD                  1         
  CONSTANTWD                  1         
  CONSTANTWD                  1         
  CONSTANTWD                  1         
  CONSTANTWD                  1         
  CONSTANTWD                  1         
  CONSTANTWD                  1         
  CONSTANTWD                  1         
  CONSTANTWD                  1         
  CONSTANTWD                  1         
  CONSTANTWD                  1         
  CONSTANTD        DAILY      1         
  CONSTANTD                   1         
  CONSTANTD                   1         
  CONSTANTD                   1         
  CONSTANTD                   1         
  CONSTANTD                   1         
  CONSTANTD                   1         

[COORDINATES]
;;Node             X-Coord          Y-Coord
  Node267          516790.500       5264068.500     
  Node270          515987.500       5264012.500     
  Node272          516597.500       5264439.500     
  Node273          517024.500       5264322.500     
  Node274          517107.500       5264203.500     
  Node275          517157.500       5264306.500     
  Node276          517525.500       5264438.500     
  Node277          516868.500       5264363.500     
  Node278          516862.500       5264380.500     
  Node280          516483.500       5264489.500     
  Node292.1        517355.182       5264558.818     
  Node299          517428.731       5264997.479     
  Node300          517648.393       5265047.577     
  Node301          517603.111       5265020.601     
  Node302          517870.944       5264724.829     
  Node303          517945.128       5264765.293     
  Node304          517990.409       5264365.471     
  Node305          517908.518       5264250.823     
  Node306          518078.081       5264369.324     

[Polygons]
;;Subcatchment    X-Coord          Y-Coord
 Node267#2        516343.000       5263457.600
 Node267#2        516251.885       5263407.000
 Node267#2        516135.076       5263342.131
 Node267#2        515794.529       5263228.684
 Node267#2        515794.000       5263229.656
 Node267#2        515794.000       5263230.000
 Node267#2        515795.000       5263230.000
 Node267#2        515796.000       5263230.000
 Node267#2        515796.000       5263231.000
 Node267#2        515797.000       5263231.000
 Node267#2        515797.000       5263232.000
 Node267#2        515798.000       5263232.000
 Node267#2        515799.000       5263232.000
 Node267#2        515799.000       5263235.000
 Node267#2        515800.000       5263235.000
 Node267#2        515800.000       5263236.000
 Node267#2        515801.000       5263236.000
 Node267#2        515801.000       5263237.000
 Node267#2        515802.000       5263237.000
 Node267#2        515802.000       5263238.000
 Node267#2        515803.000       5263238.000
 Node267#2        515803.000       5263239.000
 Node267#2        515804.000       5263239.000
 Node267#2        515805.000       5263239.000
 Node267#2        515805.000       5263240.000
 Node267#2        515806.000       5263240.000
 Node267#2        515806.000       5263241.000
 Node267#2        515808.000       5263241.000
 Node267#2        515808.000       5263242.000
 Node267#2        515809.000       5263242.000
 Node267#2        515809.000       5263243.000
 Node267#2        515810.000       5263243.000
 Node267#2        515810.000       5263244.000
 Node267#2        515811.000       5263244.000
 Node267#2        515811.000       5263245.000
 Node267#2        515812.000       5263245.000
 Node267#2        515812.000       5263246.000
 Node267#2        515813.000       5263246.000
 Node267#2        515814.000       5263246.000
 Node267#2        515814.000       5263248.000
 Node267#2        515815.000       5263248.000
 Node267#2        515815.000       5263249.000
 Node267#2        515816.000       5263249.000
 Node267#2        515817.000       5263249.000
 Node267#2        515817.000       5263250.000
 Node267#2        515818.000       5263250.000
 Node267#2        515818.000       5263251.000
 Node267#2        515820.000       5263251.000
 Node267#2        515821.000       5263251.000
 Node267#2        515821.000       5263252.000
 Node267#2        515822.000       5263252.000
 Node267#2        515822.000       5263253.000
 Node267#2        515823.000       5263253.000
 Node267#2        515823.000       5263254.000
 Node267#2        515824.000       5263254.000
 Node267#2        515824.000       5263255.000
 Node267#2        515825.000       5263255.000
 Node267#2        515825.000       5263256.000
 Node267#2        515826.000       5263256.000
 Node267#2        515826.000       5263257.000
 Node267#2        515827.000       5263257.000
 Node267#2        515827.000       5263258.000
 Node267#2        515828.000       5263258.000
 Node267#2        515828.000       5263259.000
 Node267#2        515830.000       5263259.000
 Node267#2        515831.000       5263259.000
 Node267#2        515831.000       5263260.000
 Node267#2        515834.000       5263260.000
 Node267#2        515835.000       5263260.000
 Node267#2        515835.000       5263261.000
 Node267#2        515837.000       5263261.000
 Node267#2        515837.000       5263260.000
 Node267#2        515839.000       5263260.000
 Node267#2        515840.000       5263260.000
 Node267#2        515840.000       5263263.000
 Node267#2        515841.000       5263263.000
 Node267#2        515841.000       5263264.000
 Node267#2        515842.000       5263264.000
 Node267#2        515843.000       5263264.000
 Node267#2        515843.000       5263265.000
 Node267#2        515844.000       5263265.000
 Node267#2        515845.000       5263265.000
 Node267#2        515845.000       5263266.000
 Node267#2        515847.000       5263266.000
 Node267#2        515847.000       5263265.000
 Node267#2        515852.000       5263265.000
 Node267#2        515852.000       5263264.000
 Node267#2        515854.000       5263264.000
 Node267#2        515854.000       5263265.000
 Node267#2        515855.000       5263265.000
 Node267#2        515856.000       5263265.000
 Node267#2        515856.000       5263267.000
 Node267#2        515859.000       5263267.000
 Node267#2        515860.000       5263267.000
 Node267#2        515860.000       5263268.000
 Node267#2        515862.000       5263268.000
 Node267#2        515863.000       5263268.000
 Node267#2        515863.000       5263269.000
 Node267#2        515864.000       5263269.000
 Node267#2        515864.000       5263270.000
 Node267#2        515865.000       5263270.000
 Node267#2        515865.000       5263271.000
 Node267#2        515866.000       5263271.000
 Node267#2        515866.000       5263272.000
 Node267#2        515867.000       5263272.000
 Node267#2        515867.000       5263273.000
 Node267#2        515868.000       5263273.000
 Node267#2        515868.000       5263274.000
 Node267#2        515869.000       5263274.000
 Node267#2        515869.000       5263275.000
 Node267#2        515870.000       5263275.000
 Node267#2        515870.000       5263276.000
 Node267#2        515871.000       5263276.000
 Node267#2        515871.000       5263277.000
 Node267#2        515872.000       5263277.000
 Node267#2        515872.000       5263278.000
 Node267#2        515873.000       5263278.000
 Node267#2        515873.000       5263279.000
 Node267#2        515874.000       5263279.000
 Node267#2        515875.000       5263279.000
 Node267#2        515875.000       5263280.000
 Node267#2        515876.000       5263280.000
 Node267#2        515876.000       5263281.000
 Node267#2        515877.000       5263281.000
 Node267#2        515878.000       5263281.000
 Node267#2        515878.000       5263282.000
 Node267#2        515879.000       5263282.000
 Node267#2        515879.000       5263283.000
 Node267#2        515881.000       5263283.000
 Node267#2        515882.000       5263283.000
 Node267#2        515882.000       5263284.000
 Node267#2        515883.000       5263284.000
 Node267#2        515883.000       5263285.000
 Node267#2        515884.000       5263285.000
 Node267#2        515884.000       5263286.000
 Node267#2        515885.000       5263286.000
 Node267#2        515885.000       5263287.000
 Node267#2        515886.000       5263287.000
 Node267#2        515887.000       5263287.000
 Node267#2        515887.000       5263288.000
 Node267#2        515890.000       5263288.000
 Node267#2        515891.000       5263288.000
 Node267#2        515891.000       5263289.000
 Node267#2        515892.000       5263289.000