;;EPASWMM 5.1.012
[TITLE]
 

[OPTIONS]
 FLOW_UNITS            CMS
 INFILTRATION          HORTON
 FLOW_ROUTING          DYNWAVE
 START_DATE            01/01/2014
 START_TIME            00:00:00
 REPORT_START_DATE     01/01/2014
 REPORT_START_TIME     00:00:00
 END_DATE              01/01/2014
 END_TIME              03:00:00
 REPORT_STEP           00:10:00
 WET_STEP              00:00:05
 DRY_STEP              24:00:00
 ROUTING_STEP          00:00:05
 ALLOW_PONDING         NO
 INERTIAL_DAMPING      PARTIAL
 VARIABLE_STEP         0.750000
 LENGTHENING_STEP      0.000000
 MIN_SURFAREA          0.000000
 NORMAL_FLOW_LIMITED   FROUDE
 SKIP_STEADY_STATE     NO
 IGNORE_RAINFALL       NO
 FORCE_MAIN_EQUATION   H-W
 LINK_OFFSETS          DEPTH
 COMPATIBILITY         5

[REPORT]
 INPUT YES
 CONTINUITY YES
 FLOWSTATS YES
 CONTROLS NO
 SUBCATCHMENTS ALL
 NODES ALL
 LINKS ALL

[RAINGAGES]
;;                 Rain      Recd.  Snow   Data       Source           Station    Rain  Start
;;Name             Type      Freq.  Catch  Source     Name             ID         Units Date
;;------------------------------------------------------------------------------------------------
  GCC~60min~100~Yr VOLUME    0.08333 1.0    TIMESERIES RN#54            

[JUNCTIONS]
;;                 Invert     Max.       Init.      Surcharge  Ponded
;;Name             Elev.      Depth      Depth      Depth      Area
;;------------------------------------------------------------------------
  Node15           33.376     0.6        0         
  Node16           32.617     0.6        0         
  Node19           18.446     1.05       0         
  Node20           17.802     1.05       0         
  Node21           50.493     0.3        0         
  Node22           49.34      1.373      0         
  Node29           13.14      1.301      0         
  Node30           13.108     0.3        0         
  Node31           11.448     1.05       0         
  Node32           10.592     1.05       0         
  Node33           46.73      1.056      0         
  Node34           42.646     0.3        0         
  Node35           1.5        0.668      0         
  Node36           1.357      0.5        0         
  Node37           1.1        0.644      0         
  Node39           0.1        1.703      0         
  Node40           0.226      0.9        0         
  Node41           0.191      1.2        0         
  Node43           10.349     2.2        0         
  Node44           6.857      2.2        0         
  Node45           27.057     1.05       0         
  Node46           26.59      1.05       0         
  Node47           39.697     0.525      0         
  Node48           38.872     0.525      0         
  Node49           69.262     1.2        0         
  Node50           67.342     1.2        0         
  Node61           0.886      0.932      0         
  Node62           0.884      0.75       0         
  Node63           1.4        0.731      0         
  Node65           1.647      0.45       0         
  Node66           1.3        0.5        0         
  Node67           1.4        0.45       0         
  Node68           1.866      0.45       0         
  Node69           1.281      0.3        0         
  Node70           1.799      0.3        0         
  Node71           1.36       0.3        0         
  Node72           5.2        0.3        0         
  Node73           5.15       0.3        0         
  Node74           5.3        0.702      0         
  Node75           6.04       1.402      0         
  Node76           6.9        1.418      0         
  Node77           8.25       1.421      0         
  Node78           4.023      0.3        0         
  Node79           3.298      0.3        0         
  Node80           9.602      0.3        0         
  Node89           2.96       1.683      0         
  Node90           0          4.441      0         
  Node91           7.393      0.6        0         
  Node92           5.633      0.6        0         
  Node93           10.678     0.3        0         
  Node94           10.463     0.3        0         
  Node96           6.253      0.375      0         
  Node99           6.6        6.809      0         
  Node100          5.208      0.375      0         
  Node101          6.7        6.666      0         
  Node102          6.8        6.843      0         
  Node103          6.9        6.993      0         
  Node104          7          0.726      0         
  Node105          1          1.285      0         
  Node106          0.447      0.225      0         
  Node107          2          1.908      0         
  Node108          4          1.619      0         
  Node109          1.5        0.792      0         
  Node112          11.3       1.202      0         
  Node114          17.751     0.45       0         
  Node115          16.887     0.45       0         
  Node136          49.47      1.716      0         
  Node137          50.27      1.134      0         
  Node146          53.13      0.863      0         
  Node147          52.2       1.509      0         
  Node148          56.09      1.636      0         
  Node149          56.63      1.123      0         
  Node150          57.64      0.8        0         
  Node151          57.39      1.57       0         
  Node152          54.49      1.061      0         
  Node153          52.061     0.3        0         
  Node154          57.89      0.665      0         
  Node155          57.9       1.217      0         
  Node156          58.08      1.213      0         
  Node157          21.038     1.05       0         
  Node158          20.882     1.05       0         
  Node207          68.686     0.3        0         
  Node208          67.128     0.3        0         
  Node237          23.6       0.734      0         
  Node238          22.778     0.3        0         
  Node239          26.54      1.879      0         
  Node240          28.91      1.433      0         
  Node241          35.95      1.61       0         
  Node242          36.18      1.582      0         
  Node243          58.51      0.9        0         
  Node245          26.02      1.194      0         
  Node246          37.39      1.363      0         
  Node247          45.35      1.34       0         
  Node248          47.14      2.537      0         
  Node251          31.01      0.3        0         
  Node252          29.003     0.3        0         
  Node253          28.509     0.3        0         
  Node254          27.856     0.3        0         
  Node259          72.715     0.3        0         
  Node260          71.114     0.3        0         
  Node31.1         10.65      1.584      0         
  Node95.1         6.937      0.375      0         
  Node267          222.781    15.881     0         
  Node270          512.45     22.404     0         
  Node272          241.044    22.404     0         
  Node273          187.835    15.881     0         
  Node274          207.204    6.211      0         
  Node275          175.891    13.865     0         
  Node276          148.52     16.638     0         
  Node277          204.917    20.695     0         
  Node278          220.153    9.216      0         
  Node280          271.848    15.299     0         
  Node292.1        178.79     12.451     0         
  Node295          91.062     1.35       0         
  Node296          90.284     1.35       0         
  Node299          229.021    0.001      0         
  Node300          162.604    0.001      0         
  Node301          171.304    0.001      0         
  Node302          120.555    0.001      0         
  Node303          113.24     0.001      0         
  Node304          161.585    0.001      0         
  Node305          173.546    0.001      0         
  Node306          146.764    0.001      0         

[STORAGE]
;;                 Invert   Max.       Init.        Shape       Shape                           Ponded        Evap. 
;;Name             Elev.    Depth      Depth        Curve       Params                          Area          Frac. 
;;------------------------------------------------------------------------------------------------------------------
[SUBCATCHMENTS]
;;                                                   Total    Pcnt.             Pcnt.    Curb     Snow
;;Name             Raingage         Outlet           Area     Imperv   Width    Slope    Length   Pack
;;----------------------------------------------------------------------------------------------------

[SUBAREAS]
;;Subcatchment     N-Imperv   N-Perv     S-Imperv   S-Perv     PctZero    RouteTo    PctRouted
;;--------------------------------------------------------------------------------------------


[RDII]
;;                                                    
;;Name             UH Group          Sewer Area
;;----------------------------------------------------------------------------------------------------

[OUTFALLS]
;;                 Invert     Outfall    Stage/Table      Tide
;;Name             Elev.      Type       Time Series      Gate
;;------------------------------------------------------------

[CONDUITS]
;;                 Inlet            Outlet                      Manning    Inlet      Outlet     Init.
;;Name             Node             Node             Length     N          Height     Height     Flow
;;------------------------------------------------------------------------------------------------------------
  6                Node15           Node16           11.42      0.013      0          0          0         
  197888.1         Node19           Node20           9.45       0.013      0          0          0         
  197887           Node19           Node20           9.45       0.013      0          0          0         
  197886           Node19           Node20           9.45       0.013      0          0          0         
  197889           Node19           Node20           9.45       0.013      0          0          0         
  196859           Node21           Node22           6.42       0.011      0          0.06       0         
  196853           Node29           Node30           15.37      0.011      0          0          0         
  133945           Node31           Node31.1         22.96      0.013      0          0.03       0         
  121717           Node33           Node34           37.38      0.013      0          0          0         
  121680           Node35           Node36           19.63      0.013      0          0          0         
  121676           Node37           Node41           31.38      0.013      0          0.609      0         
  121660           Node39           Node40           7.99       0.013      0.2        0          0         
  121663.1         Node41           Node39           16.22      0.013      0          0          0         
  121662.1         Node41           Node39           16.22      0.013      0          0          0         
  121664           Node43           Node44           135.14     0.013      0          0          0         
  121666           Node47           Node48           6.7        0.013      0          0          0         
  121667           Node49           Node50           18.58      0.013      0          0          0         
  121673           Node61           Node62           23.28      0.013      0          0          0         
  121674           Node63           Node61           17.95      0.011      0          0.094      0         
  133468           Node66           Node37           12.81      0.013      0          0.1        0         
  121677           Node67           Node66           2.5        0.013      0          0.05       0         
  121678           Node68           Node67           1.22       0.013      0          0          0         
  121679           Node65           Node67           38.02      0.013      0          0          0         
  121681           Node69           Node41           25.19      0.013      0          0.609      0         
  121682           Node70           Node71           8.07       0.013      0          0          0         
  121683           Node72           Node73           1.69       0.013      0          0          0         
  121684           Node74           Node72           14.91      0.013      0          0          0         
  173521           Node75           Node74           27.85      0.013      0          0          0         
  121686           Node76           Node75           18.15      0.013      0          0.06       0         
  173520           Node77           Node76           32.37      0.013      0          0          0         
  121685           Node78           Node79           8.01       0.011      0          0          0         
  173522           Node80           Node77           8.93       0.013      0          0.02       0         
  121691           Node89           Node90           25.65      0.013      0          3.19       0         
  121692           Node91           Node92           51.63      0.013      0          0          0         
  121693           Node93           Node94           7.94       0.013      0          0          0         
  121695           Node99           Node100          47.64      0.013      0          0          0         
  121696           Node101          Node99           3.39       0.013      0          0          0         
  121697           Node102          Node101          6.25       0.013      0          0          0         
  121698           Node103          Node102          3.63       0.013      0          0          0         
  121699           Node104          Node103          29.86      0.013      0          0          0         
  121700           Node105          Node106          6.74       0.013      0          0          0         
  121701           Node107          Node105          24.74      0.013      0          0.02       0         
  121702           Node108          Node107          4.7        0.013      0          0.5        0         
  121703           Node109          Node105          5.66       0.013      0          0.1        0         
  121705           Node112          Node31.1         10.97      0.013      0          0.25       0         
  121706           Node114          Node115          19.46      0.013      0          0          0         
  121718           Node136          Node33           29.21      0.013      0.09       0.05       0         
  121719           Node137          Node136          8.43       0.013      0          0          0         
  121724           Node146          Node147          14.36      0.013      0          0          0         
  121725           Node148          Node146          27.41      0.013      0.02       0.02       0         
  121726           Node149          Node148          9.24       0.013      0          0          0         
  121727           Node150          Node149          32.11      0.013      0          0          0         
  121730           Node151          Node152          38.53      0.011      0          0          0         
  121731           Node147          Node153          14.37      0.011      0          0          0         
  121732           Node152          Node147          23.76      0.011      0          0          0         
  121733           Node154          Node151          36.61      0.013      0          0          0         
  121734           Node155          Node154          2.1        0.013      0          0          0         
  121735           Node156          Node155          10.7       0.013      0          0          0         
  196851           Node157          Node158          19.66      0.013      0          0          0         
  121757           Node207          Node208          15.11      0.013      0          0          0         
  172585           Node237          Node238          21.45      0.011      0          0          0         
  172584           Node239          Node237          30.24      0.011      0          0          0         
  172583           Node240          Node239          63.76      0.011      0          0.03       0         
  175316           Node241          Node237          120.78     0.011      0          0          0         
  175315           Node242          Node241          13.55      0.011      0          0          0         
  195219           Node243          Node154          12.49      0.013      0          0.01       0         
  197862           Node245          Node29           33.02      0.011      0          0          0         
  197863           Node246          Node245          40.05      0.011      0          0          0         
  197865           Node247          Node246          35.79      0.011      0          0          0         
  197866           Node248          Node247          8.16       0.011      0          0          0         
  196858           Node22           Node248          22.13      0.011      0          0.07       0         
  196862           Node251          Node252          13.52      0.013      0          0          0         
  196863           Node253          Node254          6.43       0.013      0          0          0         
  222548           Node259          Node260          11.03      0.013      0          0          0         
  133945.1         Node31.1         Node32           51.1       0.013      0          0          0         
  133780.1         Node95.1         Node96           16.39      0.013      0          0          0         
  196904.1         Node45           Node46           7.33       0.013      0          0          0         
  196907.1         Node45           Node46           7.33       0.013      0          0          0         
  196905.1         Node45           Node46           7.33       0.013      0          0          0         
  196906.1         Node45           Node46           7.33       0.013      0          0          0         
  Link88           Node270          Node272          855.13     0          0          0          0         
  Link89           Node278          Node277          22.56      0          0          0          0         
  Link95           Node267          Node273          422.32     0          0          0          0         
  Link96           Node274          Node275          147.95     0          0          0          0         
  Link97           Node275          Node276          480.94     0          0          0          0         
  Link98           Node273          Node275          169.17     0          0          0          0         
  Link99           Node277          Node273          189.41     0          0          0          0         
  Link100          Node272          Node277          329.53     0          0          0          0         
  Link101          Node280          Node272          142.61     0          0          0          0         
  Link93.1         Node292.1        Node276          257.47     0          0          0          0         
  237723           Node295          Node296          40.43      0.013      0          0          0         

[LOSSES]
;;                               
;;Name             Kentry           Kexit            Kavg 
;;---------------------------------------------------------

[PUMPS]
;;                 Inlet            Outlet           Pump             Initial   Startup      Shutoff
;;Name             Node             Node             Curve            Status    Depth        Depth
;;---------------------------------------------------------------------------------------------------------------

[ORIFICES]
;;                 Inlet            Outlet                        Crest     Disch.     Flap
;;Name             Node             Node             Type         Height     Coeff.     Gate
;;------------------------------------------------------------------------------------------

[OUTLETS]
;;Name             From Node        To Node     Offset     Type           QTable/Qcoeff     Qexpon     Gated
;;----------------------------------------------------------------------------------------------------------

[WEIRS]
;;                     Inlet            Outlet                           Crest     Disch.    Flap      End       End
;;Name                 Node             Node             Type            Height    Coeff.    Gate      Coeff.    Con.
;;-------------------------------------------------------------------------------------------------------------------

[XSECTIONS]
;;Link             Shape         Geom1      Geom2      Geom3      Geom4      Barrels    Culvert
;;--------------------------------------------------------------------------------------------
  6                CIRCULAR     0.6        0          0          0          1         
  197888.1         CIRCULAR     1.05       0          0          0          1         
  197887           CIRCULAR     1.05       0          0          0          1         
  197886           CIRCULAR     1.05       0          0          0          1         
  197889           CIRCULAR     1.05       0          0          0          1         
  196859           CIRCULAR     0.3        0          0          0          1         
  196853           CIRCULAR     0.3        0          0          0          1         
  133945           CIRCULAR     1.05       0          0          0          1         
  121717           CIRCULAR     0.3        0          0          0          1         
  121680           RECT_CLOSED  0.5        0.6        0          0          1         
  121676           CIRCULAR     0.45       0          0          0          1         
  121660           CIRCULAR     0.9        0          0          0          1         
  121663.1         CIRCULAR     1.2        0          0          0          1         
  121662.1         CIRCULAR     1.2        0          0          0          1         
  121664           RECT_CLOSED  2.2        2.5        0          0          1         
  121666           CIRCULAR     0.525      0          0          0          1         
  121667           CIRCULAR     1.2        0          0          0          1         
  121673           RECT_CLOSED  0.75       0.65       0          0          1         
  121674           CIRCULAR     0.225      0          0          0          1         
  133468           CIRCULAR     0.45       0          0          0          1         
  121677           CIRCULAR     0.45       0          0          0          1         
  121678           CIRCULAR     0.45       0          0          0          1         
  121679           CIRCULAR     0.45       0          0          0          1         
  121681           CIRCULAR     0.3        0          0          0          1         
  121682           CIRCULAR     0.3        0          0          0          1         
  121683           CIRCULAR     0.3        0          0          0          1         
  121684           CIRCULAR     0.3        0          0          0          1         
  173521           CIRCULAR     0.3        0          0          0          1         
  121686           CIRCULAR     0.3        0          0          0          1         
  173520           CIRCULAR     0.3        0          0          0          1         
  121685           CIRCULAR     0.3        0          0          0          1         
  173522           CIRCULAR     0.3        0          0          0          1         
  121691           CIRCULAR     0.6        0          0          0          1         
  121692           CIRCULAR     0.6        0          0          0          1         
  121693           CIRCULAR     0.3        0          0          0          1         
  121695           CIRCULAR     0.375      0          0          0          1         
  121696           CIRCULAR     0.375      0          0          0          1         
  121697           CIRCULAR     0.375      0          0          0          1         
  121698           CIRCULAR     0.375      0          0          0          1         
  121699           CIRCULAR     0.375      0          0          0          1         
  121700           CIRCULAR     0.225      0          0          0          1         
  121701           CIRCULAR     0.3        0          0          0          1         
  121702           CIRCULAR     0.3        0          0          0          1         
  121703           CIRCULAR     0.225      0          0          0          1         
  121705           CIRCULAR     0.45       0          0          0          1         
  121706           CIRCULAR     0.45       0          0          0          1         
  121718           CIRCULAR     0.3        0          0          0          1         
  121719           CIRCULAR     0.3        0          0          0          1         
  121724           CIRCULAR     0.3        0          0          0          1         
  121725           CIRCULAR     0.3        0          0          0          1         
  121726           CIRCULAR     0.3        0          0          0          1         
  121727           CIRCULAR     0.3        0          0          0          1         
  121730           CIRCULAR     0.3        0          0          0          1         
  121731           CIRCULAR     0.3        0          0          0          1         
  121732           CIRCULAR     0.3        0          0          0          1         
  121733           CIRCULAR     0.3        0          0          0          1         
  121734           CIRCULAR     0.3        0          0          0          1         
  121735           CIRCULAR     0.3        0          0          0          1         
  196851           CIRCULAR     1.05       0          0          0          1         
  121757           CIRCULAR     0.3        0          0          0          1         
  172585           CIRCULAR     0.3        0          0          0          1         
  172584           CIRCULAR     0.225      0          0          0          1         
  172583           CIRCULAR     0.225      0          0          0          1         
  175316           CIRCULAR     0.3        0          0          0          1         
  175315           CIRCULAR     0.3        0          0          0          1         
  195219           CIRCULAR     0.3        0          0          0          1         
  197862           CIRCULAR     0.3        0          0          0          1         
  197863           CIRCULAR     0.3        0          0          0          1         
  197865           CIRCULAR     0.3        0          0          0          1         
  197866           CIRCULAR     0.3        0          0          0          1         
  196858           CIRCULAR     0.3        0          0          0          1         
  196862           CIRCULAR     0.3        0          0          0          1         
  196863           CIRCULAR     0.3        0          0          0          1         
  222548           CIRCULAR     0.3        0          0          0          1         
  133945.1         CIRCULAR     1.05       0          0          0          1         
  133780.1         CIRCULAR     0.375      0          0          0          1         
  196904.1         CIRCULAR     1.05       0          0          0          1         
  196907.1         CIRCULAR     1.05       0          0          0          1         
  196905.1         CIRCULAR     1.05       0          0          0          1         
  196906.1         CIRCULAR     1.05       0          0          0          1         
  Link88           IRREGULAR    Link88_SHP   0          0          0          1         
  Link89           IRREGULAR    Link89_SHP   0          0          0          1         
  Link95           IRREGULAR    Link95_SHP   0          0          0          1         
  Link96           IRREGULAR    Link96_SHP   0          0          0          1         
  Link97           IRREGULAR    Link97_SHP   0          0          0          1         
  Link98           IRREGULAR    Link98_SHP   0          0          0          1         
  Link99           IRREGULAR    Link99_SHP   0          0          0          1         
  Link100          IRREGULAR    Link100_SHP  0          0          0          1         
  Link101          IRREGULAR    Link101_SHP  0          0          0          1         
  Link93.1         IRREGULAR    Link93.1_SHP 0          0          0          1         
  237723           CIRCULAR     1.35       0          0          0          1         

[TRANSECTS]
NC   0.09       0.09       0.045     
X1   Link88_SHP       99         24.254     30.482     0          0          0          0          0         
GR   525.626    0          525.481    0.585      525.169    1.019      524.663    1.831      523.849    2.696     
GR   523.533    3.076      522.81     4.175      522.741    4.322      522.689    4.373      522.088    5.568     
GR   521.85     6.05       521.727    6.248      521.376    6.813      521.118    7.727      520.943    8.059     
GR   520.575    9.02       520.453    9.305      520.4      9.404      519.588    10.551     519.115    11.081    
GR   518.874    11.796     518.868    12.496     518.865    12.757     518.77     13.042     518.288    13.864    
GR   517.993    14.288     517.944    14.434     517.443    15.534     517.283    16.111     516.875    16.779    
GR   516.135    17.788     516.017    18.025     515.763    18.709     515.746    18.744     515.496    19.271    
GR   515.401    19.465     514.69     20.516     514.554    21.142     514.36     21.762     513.791    22.819    