[OPTIONS]
;;Option            Value              
;;----------------  ----------------   
INFILTRATION        MODIFIED_GREEN_AMPT

[RAINGAGES]
;;Name              Form                Intvl               SnowCatchDeficiency Format              Param1              Param2              Param3             
;;                                                                              TIMESERIES          Tseries            
;;                                                                              FILE                Fname               Sta                 Units              
;;----------------  ----------------    ----------------    ----------------    ----------------    ----------------    ----------------    ----------------   
Gage1               Volume              0.083               1.0                 TIMESERIES          Rainfall                                                   

[SUBCATCHMENTS]
;;Name              Rain Gage           Outlet              Area                PctImperv           Width               PctSlope            CurbLen             SnowPack           
;;----------------  ----------------    ----------------    ----------------    ----------------    ----------------    ----------------    ----------------    ----------------   
SPit10              Gage1               Pit10               0.48                26.0                50.0                1.7                 0.0                                    
SPit11A             Gage1               SPit11C             0.4                 20.0                50.0                0.4                 0.0                                    
SPit11B             Gage1               SPit11C             0.15                20.0                40.0                1.5                 0.0                                    
SPit11C             Gage1               Pit11               0.15                100.0               20.0                3.3                 0.0                                    
SPit13              Gage1               Pit13               0.25                28.0                40.0                1.8                 0.0                                    
SPit15              Gage1               Pit15               0.37                34.0                70.0                1.5                 0.0                                    
SPit18              Gage1               Pit18               0.65                30.0                25.0                4.0                 0.0                                    
SPit19              Gage1               Pit19               3.3                 21.0                30.0                3.1                 0.0                                    
SPit2               Gage1               Pit2                1.0                 30.0                50.0                4.0                 0.0                                    
SPit4               Gage1               Pit4                0.7                 28.0                40.0                4.3                 0.0                                    
SPit5               Gage1               Pit5                0.35                32.0                20.0                3.8                 0.0                                    
SPit6               Gage1               Pit6                0.75                29.0                40.0                4.3                 0.0                                    
SPit7               Gage1               Pit7                0.25                25.0                50.0                1.0                 0.0                                    
SPit9               Gage1               Pit9                0.5                 40.0                90.0                1.1                 0.0                                    

[SUBAREAS]
;;Subcatchment      Nimp                Nperv               Simp                Sperv               PctZero             RouteTo             PctRouted          
;;----------------  ----------------    ----------------    ----------------    ----------------    ----------------    ----------------    ----------------   
SPit10              0.02                0.035               1.0                 2.0                 0.0                 IMPERVIOUS                             
SPit11A             0.02                0.035               1.0                 2.0                 0.0                 IMPERVIOUS                             
SPit11B             0.02                0.035               1.0                 2.0                 0.0                 IMPERVIOUS                             
SPit11C             0.02                0.035               1.0                 2.0                 0.0                 IMPERVIOUS                             
SPit13              0.02                0.035               1.0                 2.0                 0.0                 IMPERVIOUS                             
SPit15              0.02                0.035               1.0                 2.0                 0.0                 IMPERVIOUS                             
SPit18              0.02                0.035               1.0                 2.0                 0.0                 IMPERVIOUS                             
SPit19              0.02                0.035               1.0                 2.0                 0.0                 IMPERVIOUS                             
SPit2               0.02                0.035               1.0                 2.0                 0.0                 IMPERVIOUS                             
SPit4               0.02                0.035               1.0                 2.0                 0.0                 IMPERVIOUS                             
SPit5               0.02                0.035               1.0                 2.0                 0.0                 IMPERVIOUS                             
SPit6               0.02                0.035               1.0                 2.0                 0.0                 IMPERVIOUS                             
SPit7               0.02                0.035               1.0                 2.0                 0.0                 IMPERVIOUS                             
SPit9               0.02                0.035               1.0                 2.0                 0.0                 IMPERVIOUS                             

[INFILTRATION]
;;Subcatchment      p1                  p2                  p3                  p4                  p5                  Method             
;;----------------  ----------------    ----------------    ----------------    ----------------    ----------------    ----------------   
SPit11A             200                 5                   0.05                                                                           
SPit11B             200                 5                   0.05                                                                           
SPit11C             200                 5                   0.05                                                                           
SPit13              200                 5                   0.05                                                                           
SPit15              200                 5                   0.05                                                                           
SPit9               200                 5                   0.05                                                                           
SPit19              200                 5                   0.05                                                                           
SPit2               200                 5                   0.05                                                                           
SPit4               200                 5                   0.05                                                                           
SPit5               200                 5                   0.05                                                                           
SPit6               200                 5                   0.05                                                                           
SPit7               200                 5                   0.05                                                                           
SPit10              200                 5                   0.05                                                                           
SPit18              200                 5                   0.05                                                                           

[JUNCTIONS]
;;Name              Elev                Ymax                Y0                  Ysur                Apond              
;;----------------  ----------------    ----------------    ----------------    ----------------    ----------------   
Pit10               40.8                0.0                 0.0                 0.0                 0.0                
Pit11               40.6                0.0                 0.0                 0.0                 0.0                
Pit13               40.0                0.0                 0.0                 0.0                 0.0                
Pit15               41.4739             0.0                 0.0                 0.0                 0.0                
Pit18               41.91283            0.0                 0.0                 0.0                 0.0                
Pit19               42.19779            0.0                 0.0                 0.0                 0.0                
Pit2                41.96784            0.0                 0.0                 0.0                 0.0                
Pit4                41.95067            0.0                 0.0                 0.0                 0.0                
Pit5                42.4                0.0                 0.0                 0.0                 0.0                
Pit6                42.17196            0.0                 0.0                 0.0                 0.0                
Pit7                41.65546            0.0                 0.0                 0.0                 0.0                
Pit9                41.30769            0.0                 0.0                 0.0                 0.0                

[TIMESERIES]
;;Name              Date                Time                Value              
;;----------------  ----------------    ----------------    ----------------   
Rainfall                                0.0                 0.0                
Rainfall                                0.083               4.356              
Rainfall                                0.167               5.868              
Rainfall                                0.25                6.552              
Rainfall                                0.333               6.84               
Rainfall                                0.417               6.912              
Rainfall                                0.5                 6.876              
Rainfall                                0.583               6.696              
Rainfall                                0.667               6.156              
Rainfall                                0.75                5.508              
Rainfall                                0.833               4.68               
Rainfall                                0.917               3.816              
Rainfall                                1.0                 3.096              
Rainfall                                1.083               2.412              
Rainfall                                1.167               2.088              
Rainfall                                1.25                1.692              
Rainfall                                1.333               1.548              
Rainfall                                1.417               1.404              
Rainfall                                1.5                 1.332              
Rainfall                                1.583               1.188              
Rainfall                                1.667               0.972              
Rainfall                                1.75                0.9                
Rainfall                                1.833               0.792              
Rainfall                                1.917               0.756              
Rainfall                                2.0                 0.648              
Rainfall                                2.083               0.54               
Rainfall                                2.167               0.504              
Rainfall                                2.25                0.396              
Rainfall                                2.333               0.288              
Rainfall                                2.417               0.216              
Rainfall                                2.5                 0.144              
Rainfall                                2.583               0.144              
Rainfall                                2.667               0.144              
Rainfall                                2.75                0.144              
Rainfall                                2.833               0.144              
Rainfall                                2.917               0.108              
Rainfall                                3.0                 0.108              
Rainfall                                3.083               0.108              
Rainfall                                3.167               0.108              
Rainfall                                3.25                0.108              
Rainfall                                3.333               0.0                

[TAGS]
;;Object_type       Object              Tag                
;;----------------  ----------------    ----------------   

[MAP]
;;Option            Value              
;;----------------  ----------------   
DIMENSIONS          293031.986 6177688.656 293450.169 6178250.962
Units               Feet

[COORDINATES]
;;Name              X-Coord             Y-Coord            
;;----------------  ----------------    ----------------   
Pit10               293174.508          6178101.704        
Pit11               293178.514          6178122.618        
Pit13               293189.4            6178166.301        
Pit15               293149.275          6178169.165        
Pit18               293055.004          6178065.098        
Pit19               293050.995          6178044.445        
Pit2                293083.061          6178211.344        
Pit4                293072.965          6178167.757        
Pit5                293066.359          6178125.177        
Pit6                293060.867          6178096.219        
Pit7                293084.447          6178087.87         
Pit9                293142.341          6178095.632        

[POLYGONS]
;;Name              X-Coord             Y-Coord            
;;----------------  ----------------    ----------------   
SPit18              293060.9942026202   6178057.555565274  
SPit18              292886.7454879837   6178063.723661368  
SPit18              292887.7014059024   6178065.548595577  
SPit18              292911.79617631435  6178111.90368829   
SPit18              293065.78398429044  6178081.741127967  
SPit7               293072.2078022068   6178114.560997682  
SPit7               293094.5181462167   6178106.774910942  
SPit7               293091.46010869485  6178033.259957064  
SPit7               293082.21517816954  6178031.231139571  
SPit7               293071.48439926136  6178024.331115984  
SPit7               293061.7614362018   6178016.360662562  
SPit7               293058.8571021397   6178014.719831806  
SPit7               293056.5264824899   6178034.996222753  
SPit7               293057.6482085113   6178040.660275289  
SPit7               293065.78398429044  6178081.741127967  
SPit2               292965.1613813505   6178209.949605072  
SPit2               292974.99011852563  6178214.102592611  
SPit2               293013.5361392899   6178216.224391919  
SPit2               293038.9977309874   6178210.56626043   
SPit2               293075.06831922545  6178191.116433439  
SPit2               293080.2225034039   6178185.259405965  
SPit2               293085.80642778584  6178184.061188858  
SPit2               293097.27239731606  6178242.747471588  
SPit2               293016.5713858651   6178267.267332351  
SPit2               292990.64216734096  6178282.613196377  
SPit2               292935.6087239403   6178310.659085801  
SPit2               292934.5503884917   6178297.959060401  
SPit2               292937.7283282289   6178274.841494111  
SPit2               292940.9004011918   6178256.683977851  
SPit2               292940.9004011918   6178229.167256151  
SPit2               292939.52286894055  6178215.451202527  
SPit5               293073.2944817975   6178120.293888633  
SPit5               292933.32690090645  6178162.267238163  
SPit5               292933.4949864289   6178162.657936409  
SPit5               292934.9578722397   6178174.726744348  
SPit5               293078.9938075881   6178149.30863811   
SPit4               292965.1613813505   6178209.949605072  
SPit4               292974.99011852563  6178214.102592611  
SPit4               293013.5361392899   6178216.224391919  
SPit4               293038.9977309874   6178210.56626043   
SPit4               293075.06831922545  6178191.116433439  
SPit4               293080.2225034039   6178185.259405965  
SPit4               293085.80642778584  6178184.061188858  
SPit4               293083.24651921727  6178170.958806402  
SPit4               293078.9938075881   6178149.30863811   
SPit4               292934.9578722397   6178174.726744348  
SPit4               292937.7283282289   6178197.583006259  
SPit4               292939.52286894055  6178215.451202527  
SPit6               292933.32690090645  6178162.267238163  
SPit6               293073.2944817975   6178120.293888633  
SPit6               293065.78398429044  6178082.058628601  
SPit6               292911.79617631435  6178112.221188925  
SPit19              292886.7454879837   6178063.723661368  
SPit19              293060.9942026202   6178057.555565274  
SPit19              293056.5264824899   6178034.996222753  
SPit19              293061.81815974135  6177988.958630678  
SPit19              293029.0097607905   6177939.746032253  
SPit19              292992.68828254286  6177897.061591937  
SPit19              292946.1215227442   6177864.041525897  
SPit19              292873.3080437826   6177891.134913417  
SPit19              292852.98800314125  6177913.148290778  
SPit19              292847.0613246234   6177952.941703698  
SPit19              292852.14133478235  6177994.428453337  
SPit19              292869.07470198255  6178029.9885244565 
SPit9               293076.843107864    6178138.243195673  
SPit9               293145.26451300265  6178112.609859038  
SPit9               293143.84998013056  6178068.759340004  
SPit9               293141.87694240204  6178044.324026597  
SPit9               293091.46010869485  6178033.259957064  
SPit9               293094.5181462167   6178106.774910942  
SPit9               293072.2078022068   6178114.560997682  
SPit10              293145.26451300265  6178112.609859038  
SPit10              293168.427488783    6178112.256225821  
SPit10              293179.0364853236   6178112.256225821  
SPit10              293194.4195303075   6178115.615741392  
SPit10              293209.9793919005   6178122.865222361  
SPit10              293213.7695820392   6178124.76031743   
SPit10              293213.0093942113   6178119.929126964  
SPit10              293203.23155258765  6178057.788411869  
SPit10              293141.87694240204  6178044.324026597  
SPit10              293143.84998013056  6178068.759340004  
SPit15              293149.00939558184  6178207.475754635  
SPit15              293153.2212604081   6178196.244115098  
SPit15              293153.75171023514  6178180.153803679  
SPit15              293153.39807701716  6178163.356225823  
SPit15              293142.7890804765   6178163.179409214  
SPit15              293105.48077597533  6178166.715741394  
SPit15              293082.1677773425   6178165.447416097  
SPit15              293083.24651921727  6178170.958806402  
SPit15              293097.27239731606  6178242.747471588  
SPit15              293101.5684598809   6178239.771545677  
SPit15              293103.07496988925  6178231.478790067  
SPit15              293108.0160324726   6178217.034858453  
SPit15              293147.775456307    6178207.763492765  
SPit11C             293169.44384819467  6178155.89484261   
SPit11C             293170.43772735854  6178162.251256094  
SPit11C             293192.3685077331   6178158.487057056  
SPit11C             293183.77084439696  6178113.290166308  
SPit11C             293179.0364853236   6178112.256225821  
SPit11C             293168.427488783    6178112.256225821  
SPit11C             293161.87192960054  6178112.356310694  
SPit11B             293183.77084439696  6178113.290166308  
SPit11B             293192.3685077331   6178158.487057056  
SPit11B             293194.24271369854  6178158.935810598  
SPit11B             293221.6264820188   6178174.692951027  
SPit11B             293213.7695820392   6178124.76031743   
SPit11B             293209.9793919005   6178122.865222361  
SPit11B             293194.4195303075   6178115.615741392  
SPit13              293170.43772735854  6178162.251256094  
SPit13              293153.39807701716  6178163.356225823  
SPit13              293153.75171023514  6178180.153803679  
SPit13              293153.2212604081   6178196.244115098  
SPit13              293149.00939558184  6178207.475754635  
SPit13              293224.03212847037  6178189.981457072  
SPit13              293221.6264820188   6178174.692951027  
SPit13              293194.24271369854  6178158.935810598  
SPit13              293192.36850773246  6178158.487057056  
SPit11A             293082.1677773425   6178165.447416097  
SPit11A             293078.9938075881   6178149.30863811   
SPit11A             293076.843107864    6178138.243195673  
SPit11A             293145.26451300265  6178112.609859038  
SPit11A             293161.87192960054  6178112.356310694  
SPit11A             293170.43772735854  6178162.251256094  
SPit11A             293153.39807701716  6178163.356225823  
SPit11A             293142.7890804765   6178163.179409214  
SPit11A             293105.48077597533  6178166.715741394  

