[OPTIONS]
;;Option            Value              
;;----------------  ----------------   
START_DATE          01/01/2014         
START_TIME          00:00:00           
END_DATE            01/01/2014         
END_TIME            02:00:00           
REPORT_STEP         00:05:00           
FLOW_UNITS          CMS                
INFILTRATION        GREEN_AMPT         
FORCE_MAIN_EQUATION H-W                
FLOW_ROUTING        DYNWAVE            
ALLOW_PONDING       YES                
ROUTING_STEP        00:00:01           
LINK_OFFSETS        ELEVATION          

[RAINGAGES]
;;Name              Form                Intvl               SnowCatchDeficiency Format              Param1              Param2              Param3             
;;                                                                              TIMESERIES          Tseries            
;;                                                                              FILE                Fname               Sta                 Units              
;;----------------  ----------------    ----------------    ----------------    ----------------    ----------------    ----------------    ----------------   
Q100                VOLUME              0.08333333333333333 1.0                 TIMESERIES          Q100_rf                                                    

[SUBCATCHMENTS]
;;Name              Rain Gage           Outlet              Area                PctImperv           Width               PctSlope            CurbLen             SnowPack           
;;----------------  ----------------    ----------------    ----------------    ----------------    ----------------    ----------------    ----------------    ----------------   
MH-01#1             Q100                MH-01               3.8                 35.0                175.0               3.0                 0.0                                    
MH-02#1             Q100                MH-02               1.6                 35.0                105.0               3.0                 0.0                                    
MH-03#1             Q100                MH-03               2.5                 35.0                105.0               3.0                 0.0                                    
MH-04#1             Q100                MH-04               1.89                35.0                93.0                3.0                 0.0                                    
MH-05#1             Q100                MH-05               2.0                 35.0                120.0               3.0                 0.0                                    
MH-06#1             Q100                MH-06               1.036               35.0                90.0                3.0                 0.0                                    
MH-08#1             Q100                MH-08               1.39                35.0                100.0               3.0                 0.0                                    
MH-10#1             Q100                MH-10               1.568               35.0                110.0               3.0                 0.0                                    
MH-11#1             Q100                MH-11               1.475               35.0                110.0               3.0                 0.0                                    
MH-12#1             Q100                MH-12               1.676               35.0                110.0               3.0                 0.0                                    
MH-14#1             Q100                MH-14               0.676               35.0                50.0                3.0                 0.0                                    
MH-15#1             Q100                MH-15               0.466               35.0                50.0                3.0                 0.0                                    
MH-16#1             Q100                MH-16               0.849               35.0                90.0                3.0                 0.0                                    
MH-17#1             Q100                MH-17               1.285               35.0                130.0               3.0                 0.0                                    
MH-18#1             Q100                MH-18               1.203               35.0                85.0                3.0                 0.0                                    
MH-20#1             Q100                MH-20               1.187               35.0                85.0                3.0                 0.0                                    
MH-22#1             Q100                MH-22               2.393               35.0                105.0               3.0                 0.0                                    
MH-24#1             Q100                MH-24               0.414               35.0                45.0                3.0                 0.0                                    
MH-26#1             Q100                MH-26               0.937               35.0                105.0               3.0                 0.0                                    

[SUBAREAS]
;;Subcatchment      Nimp                Nperv               Simp                Sperv               PctZero             RouteTo             PctRouted          
;;----------------  ----------------    ----------------    ----------------    ----------------    ----------------    ----------------    ----------------   
MH-01#1             0.014               0.03                0.0                 5.0                 25.0                OUTLET                                 
MH-02#1             0.014               0.03                0.0                 5.0                 25.0                OUTLET                                 
MH-03#1             0.014               0.03                0.0                 5.0                 25.0                OUTLET                                 
MH-04#1             0.014               0.03                0.0                 5.0                 25.0                OUTLET                                 
MH-05#1             0.014               0.03                0.0                 5.0                 25.0                OUTLET                                 
MH-06#1             0.014               0.03                0.0                 5.0                 25.0                OUTLET                                 
MH-08#1             0.014               0.03                0.0                 5.0                 25.0                OUTLET                                 
MH-10#1             0.014               0.03                0.0                 5.0                 25.0                OUTLET                                 
MH-11#1             0.014               0.03                0.0                 5.0                 25.0                OUTLET                                 
MH-12#1             0.014               0.03                0.0                 5.0                 25.0                OUTLET                                 
MH-14#1             0.014               0.03                0.0                 5.0                 25.0                OUTLET                                 
MH-15#1             0.014               0.03                0.0                 5.0                 25.0                OUTLET                                 
MH-16#1             0.014               0.03                0.0                 5.0                 25.0                OUTLET                                 
MH-17#1             0.014               0.03                0.0                 5.0                 25.0                OUTLET                                 
MH-18#1             0.014               0.03                0.0                 5.0                 25.0                OUTLET                                 
MH-20#1             0.014               0.03                0.0                 5.0                 25.0                OUTLET                                 
MH-22#1             0.014               0.03                0.0                 5.0                 25.0                OUTLET                                 
MH-24#1             0.014               0.03                0.0                 5.0                 25.0                OUTLET                                 
MH-26#1             0.014               0.03                0.0                 5.0                 25.0                OUTLET                                 

[INFILTRATION]
;;Subcatchment      p1                  p2                  p3                  p4                  p5                  Method             
;;----------------  ----------------    ----------------    ----------------    ----------------    ----------------    ----------------   
MH-01#1             208.8               5.0                 0.8                 0.0                                                        
MH-02#1             208.8               5.0                 0.8                 0.0                                                        
MH-03#1             208.8               5.0                 0.8                 0.0                                                        
MH-04#1             208.8               5.0                 0.8                 0.0                                                        
MH-05#1             208.8               5.0                 0.8                 0.0                                                        
MH-06#1             208.8               5.0                 0.8                 0.0                                                        
MH-08#1             208.8               5.0                 0.8                 0.0                                                        
MH-10#1             208.8               5.0                 0.8                 0.0                                                        
MH-11#1             208.8               5.0                 0.8                 0.0                                                        
MH-12#1             208.8               5.0                 0.8                 0.0                                                        
MH-14#1             208.8               5.0                 0.8                 0.0                                                        
MH-15#1             208.8               5.0                 0.8                 0.0                                                        
MH-16#1             208.8               5.0                 0.8                 0.0                                                        
MH-17#1             208.8               5.0                 0.8                 0.0                                                        
MH-18#1             208.8               5.0                 0.8                 0.0                                                        
MH-20#1             208.8               5.0                 0.8                 0.0                                                        
MH-22#1             208.8               5.0                 0.8                 0.0                                                        
MH-24#1             208.8               5.0                 0.8                 0.0                                                        
MH-26#1             208.8               5.0                 0.8                 0.0                                                        

[JUNCTIONS]
;;Name              Elev                Ymax                Y0                  Ysur                Apond              
;;----------------  ----------------    ----------------    ----------------    ----------------    ----------------   
C1_d/s              44.42               4.489999999999995   0.0                 0.0                 0.0                
C1_u/s              44.472              4.527999999999999   0.0                 0.0                 0.0                
C3_u/s              37.72               1.2800000000000011  0.0                 0.0                 0.0                
MH-01               39.52               2.561               0.0                 0.0                 0.0                
MH-02               39.66               2.639000000000003   0.0                 0.0                 0.0                
MH-03               40.0                3.107999999999997   0.0                 0.0                 0.0                
MH-04               41.5                2.298000000000002   0.0                 0.0                 0.0                
MH-05               45.0                3.8519999999999968  0.0                 0.0                 0.0                
MH-06               44.0                4.060000000000002   0.0                 0.0                 0.0                
MH-08               40.04               2.136000000000003   0.0                 0.0                 0.0                
MH-09               40.09               3.3219999999999956  0.0                 0.0                 0.0                
MH-10               41.5                3.1799999999999997  0.0                 0.0                 0.0                
MH-11               43.5                3.331000000000003   0.0                 0.0                 0.0                
MH-12               44.0                2.8459999999999965  0.0                 0.0                 0.0                
MH-13               44.23               4.015000000000001   0.0                 0.0                 0.0                
MH-14               45.0                3.2550000000000026  0.0                 0.0                 0.0                
MH-15               51.0                3.161999999999999   0.0                 0.0                 0.0                
MH-16               40.1                3.8359999999999985  0.0                 0.0                 0.0                
MH-17               42.0                3.1199999999999974  0.0                 0.0                 0.0                
MH-18               42.5                2.9450000000000003  0.0                 0.0                 0.0                
MH-19               42.8                3.1610000000000014  0.0                 0.0                 0.0                
MH-20               45.0                3.621000000000002   0.0                 0.0                 0.0                
MH-21               43.5                2.5930000000000035  0.0                 0.0                 0.0                
MH-22               44.0                3.2719999999999985  0.0                 0.0                 0.0                
MH-23               40.14               2.496000000000002   0.0                 0.0                 0.0                
MH-24               40.3                2.7920000000000016  0.0                 0.0                 0.0                
MH-25               40.42               4.939               0.0                 0.0                 0.0                
MH-26               40.61               2.850999999999999   0.0                 0.0                 0.0                

[OUTFALLS]
;;Name              Elev                Type                Param1              Gated               RouteTo            
;;                                      FREE                Gated               RouteTo            
;;                                      NORMAL              Gated               RouteTo            
;;                                      FIXED               Stage               Gated               RouteTo            
;;                                      TIDAL               Tcurve              Gated               RouteTo            
;;                                      TIMESERIES          Tseries             Gated               RouteTo            
;;----------------  ----------------    ----------------    ----------------    ----------------    ----------------   
96                  39.0                FIXED               39.0                                                       
97                  39.57               FIXED               39.57                                                      
C3_d/s              37.472              FIXED               37.472                                                     

[CONDUITS]
;;Name              From Node           To Node             Length              Roughness           InOffset            OutOffset           InitFlow            MaxFlow            
;;----------------  ----------------    ----------------    ----------------    ----------------    ----------------    ----------------    ----------------    ----------------   
C1                  C1_u/s              C1_d/s              10.0                0.015               44.472              44.42               0.0                                    
C1-MH-13            C1_d/s              MH-13               40.12               0.014               44.42               44.23               0.0                                    
C3                  C3_u/s              C3_d/s              10.0                0.015               37.75               37.5                0.123                                  
MH-01-96            MH-01               96                  20.68               0.014               39.52               39.5                0.0                                    
MH-02-01            MH-02               MH-01               94.31               0.014               39.66               39.52               0.0                                    
MH-03-02            MH-03               MH-02               111.32              0.014               40.0                39.66               0.0                                    
MH-04-03            MH-04               MH-03               149.39              0.014               41.5                40.0                0.0                                    
MH-05-03            MH-05               MH-03               154.93              0.014               45.0                40.0                0.0                                    
MH-06-02            MH-06               MH-02               151.98              0.014               44.0                39.66               0.0                                    
MH-08-97            MH-08               97                  33.04               0.014               40.04               40.0                0.0                                    
MH-09-08            MH-09               MH-08               34.1                0.014               40.09               40.04               0.0                                    
MH-10-09            MH-10               MH-09               83.29               0.014               41.5                40.09               0.0                                    
MH-11-10            MH-11               MH-10               113.39              0.014               43.5                41.5                0.0                                    
MH-12-11            MH-12               MH-11               55.38               0.014               44.0                43.5                0.0                                    
MH-13-12            MH-13               MH-12               48.52               0.014               44.23               44.0                0.0                                    
MH-14-12            MH-14               MH-12               115.85              0.014               45.0                44.0                0.0                                    
MH-15-14            MH-15               MH-14               135.76              0.014               51.0                45.0                0.0                                    
MH-16-08            MH-16               MH-08               65.79               0.014               40.1                40.04               0.0                                    
MH-17-16            MH-17               MH-16               82.38               0.014               42.0                40.1                0.0                                    
MH-18-17            MH-18               MH-17               43.75               0.014               42.5                42.0                0.0                                    
MH-19-18            MH-19               MH-18               39.87               0.014               42.8                42.5                0.0                                    
MH-20-19            MH-20               MH-19               103.51              0.014               45.0                42.8                0.0                                    
MH-21-18            MH-21               MH-18               36.13               0.014               43.5                42.5                0.0                                    
MH-22-21            MH-22               MH-21               67.57               0.014               44.0                43.5                0.0                                    
MH-23-16            MH-23               MH-16               35.54               0.014               40.14               40.1                0.0                                    
MH-24-23            MH-24               MH-23               105.55              0.014               40.3                40.14               0.0                                    
MH-25-24            MH-25               MH-24               81.31               0.014               40.42               40.3                0.0                                    
MH-26-25            MH-26               MH-25               94.04               0.014               40.61               40.42               0.0                                    

[LOSSES]
;;Link              Kentry              Kexit               Kavg                Flap                Seepage            
;;----------------  ----------------    ----------------    ----------------    ----------------    ----------------   
C1                  0.8                 0.8                 0.0                                                        
C1-MH-13            0.0                 0.0                 0.0                                                        
C3                  0.8                 0.8                 0.0                                                        
MH-01-96            0.0                 0.0                 0.0                                                        
MH-02-01            0.0                 0.0                 0.0                                                        
MH-03-02            0.0                 0.0                 0.0                                                        
MH-04-03            0.0                 0.0                 0.0                                                        
MH-05-03            0.0                 0.0                 0.0                                                        
MH-06-02            0.0                 0.0                 0.0                                                        
MH-08-97            0.0                 0.0                 0.0                                                        
MH-09-08            0.0                 0.0                 0.0                                                        
MH-10-09            0.0                 0.0                 0.0                                                        
MH-11-10            0.0                 0.0                 0.0                                                        
MH-12-11            0.0                 0.0                 0.0                                                        
MH-13-12            0.0                 0.0                 0.0                                                        
MH-14-12            0.0                 0.0                 0.0                                                        
MH-15-14            0.0                 0.0                 0.0                                                        
MH-16-08            0.0                 0.0                 0.0                                                        
MH-17-16            0.0                 0.0                 0.0                                                        
MH-18-17            0.0                 0.0                 0.0                                                        
MH-19-18            0.0                 0.0                 0.0                                                        
MH-20-19            0.0                 0.0                 0.0                                                        
MH-21-18            0.0                 0.0                 0.0                                                        
MH-22-21            0.0                 0.0                 0.0                                                        
MH-23-16            0.0                 0.0                 0.0                                                        
MH-24-23            0.0                 0.0                 0.0                                                        
MH-25-24            0.0                 0.0                 0.0                                                        
MH-26-25            0.0                 0.0                 0.0                                                        

[XSECTIONS]
;;Link              XsecType            Param1              Param2              Param3              Param4              Param5              Param6             
;;                  Default             Geom1               Geom2               Geom3               Geom4               Barrels             Culvert            
;;                  CUSTOM              Geom1               Curve               Geom3               Geom4               Barrels            
;;                  IRREGULAR           Tsect              
;;                  STREET              Street             
;;----------------  ----------------    ----------------    ----------------    ----------------    ----------------    ----------------    ----------------   
C1                  RECT_CLOSED         1.8                 1.8                 0.0                 0.0                 3                                      
C1-MH-13            CIRCULAR            1.8                 0.0                 0.0                 0.0                 3                                      
C3                  RECT_CLOSED         1.2                 2.4                 0.0                 0.0                 5                                      
MH-01-96            CIRCULAR            1.5                 0.0                 0.0                 0.0                 1                                      
MH-02-01            CIRCULAR            1.25                0.0                 0.0                 0.0                 1                                      
MH-03-02            CIRCULAR            1.0                 0.0                 0.0                 0.0                 1                                      
MH-04-03            CIRCULAR            0.75                0.0                 0.0                 0.0                 1                                      
MH-05-03            CIRCULAR            0.75                0.0                 0.0                 0.0                 1                                      
MH-06-02            CIRCULAR            1.0                 0.0                 0.0                 0.0                 1                                      
MH-08-97            CIRCULAR            2.0                 0.0                 0.0                 0.0                 3                                      
MH-09-08            CIRCULAR            1.8                 0.0                 0.0                 0.0                 3                                      
MH-10-09            CIRCULAR            1.8                 0.0                 0.0                 0.0                 3                                      
MH-11-10            CIRCULAR            1.8                 0.0                 0.0                 0.0                 3                                      
MH-12-11            CIRCULAR            1.8                 0.0                 0.0                 0.0                 3                                      
MH-13-12            CIRCULAR            1.8                 0.0                 0.0                 0.0                 3                                      
MH-14-12            CIRCULAR            1.0                 0.0                 0.0                 0.0                 1                                      
MH-15-14            CIRCULAR            0.75                0.0                 0.0                 0.0                 1                                      
MH-16-08            CIRCULAR            1.75                0.0                 0.0                 0.0                 1                                      
MH-17-16            CIRCULAR            1.5                 0.0                 0.0                 0.0                 1                                      
MH-18-17            CIRCULAR            1.25                0.0                 0.0                 0.0                 1                                      
MH-19-18            CIRCULAR            1.0                 0.0                 0.0                 0.0                 1                                      
MH-20-19            CIRCULAR            0.75                0.0                 0.0                 0.0                 1                                      
MH-21-18            CIRCULAR            1.25                0.0                 0.0                 0.0                 1                                      
MH-22-21            CIRCULAR            1.0                 0.0                 0.0                 0.0                 1                                      