[JUNCTIONS]
;;Name              Elev                Ymax                Y0                  Ysur                Apond
;;----------------  ----------------    ----------------    ----------------    ----------------    ----------------
Node101             6.7                 6.666               0.0
Node102             6.8                 6.843               0.0
Node103             6.9                 6.993               0.0
Node104             7.0                 0.726               0.0
Node105             1.0                 1.285               0.0
Node107             2.0                 1.908               0.0
Node108             4.0                 1.619               0.0
Node109             1.5                 0.792               0.0
Node112             11.3                1.202               0.0
Node114             17.751              0.45                0.0
Node136             49.47               1.716               0.0
Node137             50.27               1.134               0.0
Node146             53.13               0.863               0.0
Node147             52.2                1.509               0.0
Node148             56.09               1.636               0.0
Node149             56.63               1.123               0.0
Node15              33.376              0.6                 0.0
Node150             57.64               0.8                 0.0
Node151             57.39               1.57                0.0
Node152             54.49               1.061               0.0
Node154             57.89               0.665               0.0
Node155             57.9                1.217               0.0
Node156             58.08               1.213               0.0
Node157             21.038              1.05                0.0
Node19              18.446              1.05                0.0
Node207             68.686              0.3                 0.0
Node21              50.493              0.3                 0.0
Node22              49.34               1.373               0.0
Node237             23.6                0.734               0.0
Node239             26.54               1.879               0.0
Node240             28.91               1.433               0.0
Node241             35.95               1.61                0.0
Node242             36.18               1.582               0.0
Node243             58.51               0.9                 0.0
Node245             26.02               1.194               0.0
Node246             37.39               1.363               0.0
Node247             45.35               1.34                0.0
Node248             47.14               2.537               0.0
Node251             31.01               0.3                 0.0
Node253             28.509              0.3                 0.0
Node259             72.715              0.3                 0.0
Node267             222.781             15.881              0.0
Node270             512.45              22.404              0.0
Node272             241.044             22.404              0.0
Node273             187.835             15.881              0.0
Node274             207.204             6.211               0.0
Node275             175.891             13.865              0.0
Node277             204.917             20.695              0.0
Node278             220.153             9.216               0.0
Node280             271.848             15.299              0.0
Node29              13.14               1.301               0.0
Node292.1           178.79              12.451              0.0
Node295             91.062              1.35                0.0
Node299             229.021             0.001               0.0
Node300             162.604             0.001               0.0
Node301             171.304             0.001               0.0
Node302             120.555             0.001               0.0
Node303             113.24              0.001               0.0
Node304             161.585             0.001               0.0
Node305             173.546             0.001               0.0
Node306             146.764             0.001               0.0
Node31              11.448              1.05                0.0
Node31.1            10.65               1.584               0.0
Node33              46.73               1.056               0.0
Node35              1.5                 0.668               0.0
Node37              1.1                 0.644               0.0
Node39              0.1                 1.703               0.0
Node41              0.191               1.2                 0.0
Node43              10.349              2.2                 0.0
Node45              27.057              1.05                0.0
Node47              39.697              0.525               0.0
Node49              69.262              1.2                 0.0
Node61              0.886               0.932               0.0
Node63              1.4                 0.731               0.0
Node65              1.647               0.45                0.0
Node66              1.3                 0.5                 0.0
Node67              1.4                 0.45                0.0
Node68              1.866               0.45                0.0
Node69              1.281               0.3                 0.0
Node70              1.799               0.3                 0.0
Node72              5.2                 0.3                 0.0
Node74              5.3                 0.702               0.0
Node75              6.04                1.402               0.0
Node76              6.9                 1.418               0.0
Node77              8.25                1.421               0.0
Node78              4.023               0.3                 0.0
Node80              9.602               0.3                 0.0
Node89              2.96                1.683               0.0
Node91              7.393               0.6                 0.0
Node93              10.678              0.3                 0.0
Node95.1            6.937               0.375               0.0
Node99              6.6                 6.809               0.0

[OUTFALLS]
;;Name              Elev                Type                Param1              Gated               RouteTo
;;                                      FREE                                    Gated               RouteTo
;;                                      NORMAL                                  Gated               RouteTo
;;                                      FIXED               Stage               Gated               RouteTo
;;                                      TIDAL               Tcurve              Gated               RouteTo
;;                                      TIMESERIES          Tseries             Gated               RouteTo
;;----------------  ----------------    ----------------    ----------------    ----------------    ----------------
Node100             5.208               FIXED               5.208
Node106             0.447               FIXED               0.447
Node115             16.887              FIXED               16.887
Node153             52.061              FIXED               52.061
Node158             20.882              FIXED               20.882
Node16              32.617              FIXED               32.617
Node20              17.802              FIXED               17.802
Node208             67.128              FIXED               67.128
Node238             22.778              FIXED               22.778
Node252             29.003              FIXED               29.003
Node254             27.856              FIXED               27.856
Node260             71.114              FIXED               71.114
Node276             148.52              FIXED               148.52
Node296             90.284              FIXED               90.284
Node30              13.108              FIXED               13.108
Node32              10.592              FIXED               10.592
Node34              42.646              FIXED               42.646
Node36              1.357               FIXED               1.357
Node40              0.226               FIXED               0.226
Node44              6.857               FIXED               6.857
Node46              26.59               FIXED               26.59
Node48              38.872              FIXED               38.872
Node50              67.342              FIXED               67.342
Node62              0.884               FIXED               0.884
Node71              1.36                FIXED               1.36
Node73              5.15                FIXED               5.15
Node79              3.298               FIXED               3.298
Node90              0.0                 FIXED               0.0
Node92              5.633               FIXED               5.633
Node94              10.463              FIXED               10.463
Node96              6.253               FIXED               6.253

[COORDINATES]
;;Name              X-Coord             Y-Coord
;;----------------  ----------------    ----------------
Node100             518776.426          5266659.284
Node101             518750.83           5266621.036
Node102             518753.262          5266615.277
Node103             518754.878          5266612.028
Node104             518730.93           5266594.191
Node105             518580.644          5266867.298
Node106             518581.409          5266873.994
Node107             518578.169          5266842.681
Node108             518582.845          5266843.171
Node109             518574.985          5266867.162
Node112             518687.564          5266476.359
Node114             518643.518          5266337.422
Node115             518625.979          5266345.851
Node136             518402.924          5265858.446
Node137             518409.177          5265852.792
Node146             518333.151          5265791.432
Node147             518320.629          5265798.469
Node148             518358.185          5265780.257
Node149             518367.288          5265778.647
Node15              518393.823          5265980.636
Node150             518361.541          5265747.053
Node151             518314.053          5265736.696
Node152             518315.933          5265775.181
Node153             518325.376          5265812.027
Node154             518348.546          5265724.438
Node155             518350.591          5265723.965
Node156             518359.307          5265717.766
Node157             518574.601          5266186.996
Node158             518572.109          5266206.497
Node16              518401.467          5265989.124
Node19              518702.738          5266264.848
Node20              518702.306          5266274.293
Node207             518535.306          5265234.163
Node208             518536.005          5265250.706
Node21              518495.496          5266390.472
Node22              518497.97           5266396.391
Node237             518558.676          5266080.264
Node238             518538.589          5266087.802
Node239             518587.182          5266070.176
Node240             518573.857          5266007.828
Node241             518531.217          5265962.647
Node242             518518.84           5265957.138
Node243             518340.383          5265714.987
Node245             518594.323          5266438.082
Node246             518556.334          5266425.395
Node247             518522.567          5266413.537
Node248             518514.973          5266410.548
Node251             518483.229          5266192.801
Node252             518495.46           5266198.557
Node253             518498.294          5266198.264
Node254             518504.657          5266197.37
Node259             518437.139          5265317.146
Node260             518432.029          5265326.92
Node267             516790.5            5264068.5
Node270             515987.5            5264012.5
Node272             516597.5            5264439.5
Node273             517024.5            5264322.5
Node274             517107.5            5264203.5
Node275             517157.5            5264306.5
Node276             517525.5            5264438.5
Node277             516868.5            5264363.5
Node278             516862.5            5264380.5
Node280             516483.5            5264489.5
Node29              518625.682          5266448.41
Node292.1           517355.182          5264558.818
Node295             518409.732          5264791.826
Node296             518414.023          5264832.026
Node299             517428.731          5264997.479
Node30              518635.034          5266460.611
Node300             517648.393          5265047.577
Node301             517603.111          5265020.601
Node302             517870.944          5264724.829
Node303             517945.128          5264765.293
Node304             517990.409          5264365.471
Node305             517908.518          5264250.823
Node306             518078.081          5264369.324
Node31              518674.395          5266481.124
Node31.1            518697.064          5266481.835
Node32              518748.082          5266481.333
Node33              518376.823          5265871.553
Node34              518343.725          5265888.921
Node35              518732.977          5266811.948
Node36              518744.134          5266828.104
Node37              518871.937          5266737.692
Node39              518914.987          5266738.114
Node40              518919.288          5266744.849
Node41              518901.938          5266728.48
Node43              518752.133          5266490.662
Node44              518811.75           5266611.938
Node45              518738.952          5266141.218
Node46              518739.536          5266148.52
Node47              518621.172          5265865.417
Node48              518627.096          5265868.551
Node49              518409.304          5265325.445
Node50              518423.456          5265337.486
Node61              518782.131          5266783.963
Node62              518794.187          5266803.877
Node63              518766.629          5266793.011
Node65              518821.783          5266750.349
Node66              518859.198          5266739.07
Node67              518857.474          5266737.253
Node68              518857.52           5266736.032
Node69              518924.87           5266718.063
Node70              518873.641          5266754.189
Node71              518876.216          5266761.842
Node72              518867.154          5266676.915
Node73              518865.85           5266677.993
Node74              518873.476          5266663.417
Node75              518874.358          5266635.583
Node76              518874.54           5266617.436
Node77              518873.509          5266585.083
Node78              518864.433          5266680.204
Node79              518862.669          5266688.022
Node80              518873.748          5266576.155
Node89              518799.942          5266672.575
Node90              518825.447          5266675.265
Node91              518712.726          5266632.373
Node92              518759.274          5266654.699
Node93              518675.899          5266519.916
Node94              518675.339          5266527.834
Node95.1            518781.251          5266623.565
Node96              518773.223          5266637.86
Node99              518749.461          5266624.135

