[OPTIONS]
;;Option            Value
;;----------------  ----------------
INFILTRATION        MODIFIED_GREEN_AMPT

[JUNCTIONS]
;;Name              Elev                Ymax                Y0                  Ysur                Apond
;;----------------  ----------------    ----------------    ----------------    ----------------    ----------------
Pit10               40.8                0.0                 0.0                 0.0                 0.0
Pit11               40.6                0.0                 0.0                 0.0                 0.0
Pit13               40.0                0.0                 0.0                 0.0                 0.0
Pit15               41.4739             0.0                 0.0                 0.0                 0.0
Pit18               41.91283            0.0                 0.0                 0.0                 0.0
Pit19               42.19779            0.0                 0.0                 0.0                 0.0
Pit2                41.96784            0.0                 0.0                 0.0                 0.0
Pit4                41.95067            0.0                 0.0                 0.0                 0.0
Pit5                42.4                0.0                 0.0                 0.0                 0.0
Pit6                42.17196            0.0                 0.0                 0.0                 0.0
Pit7                41.65546            0.0                 0.0                 0.0                 0.0
Pit9                41.30769            0.0                 0.0                 0.0                 0.0

[INFLOWS]
;;Node              Type                Param1              Param2              Param3              Sfactor             Base                Pat
;;                  Default             Tseries             PollutType          Mfactor             Sfactor             Base                Pat
;;                  FLOW                Tseries             SeriesType          Factor1             Sfactor             Base                Pat
;;----------------  ----------------    ----------------    ----------------    ----------------    ----------------    ----------------    ----------------
Pit11               FLOW                ts_02               FLOW                1.0                 2.0                 4.0                 FlowPat
Pit13               FLOW                ts_01

[TIMESERIES]
;;Name              Date                Time                Value
;;----------------  ----------------    ----------------    ----------------
ts_01                                   0.0                 0.0
ts_01                                   12.0                100.0
ts_01                                   24.0                0.0
ts_02                                   0                   0.0
ts_02                                   12.0                500.0
ts_02                                   24.0                0.0

[MAP]
;;Option            Value
;;----------------  ----------------
DIMENSIONS          293031.986 6177688.656 293450.169 6178250.962
Units

[COORDINATES]
;;Name              X-Coord             Y-Coord
;;----------------  ----------------    ----------------
Pit10               293174.508          6178101.704
Pit11               293178.514          6178122.618
Pit13               293189.4            6178166.301
Pit15               293149.275          6178169.165
Pit18               293055.004          6178065.098
Pit19               293050.995          6178044.445
Pit2                293083.061          6178211.344
Pit4                293072.965          6178167.757
Pit5                293066.359          6178125.177
Pit6                293060.867          6178096.219
Pit7                293084.447          6178087.87
Pit9                293142.341          6178095.632

