[OPTIONS]
;;Option            Value
;;----------------  ----------------
FLOW_UNITS          CMS
INFILTRATION        GREEN_AMPT
FLOW_ROUTING        DYNWAVE
LINK_OFFSETS        DEPTH
FORCE_MAIN_EQUATION H-W
IGNORE_RAINFALL     NO
IGNORE_SNOWMELT     YES
IGNORE_GROUNDWATER  YES
IGNORE_RDII         YES
IGNORE_QUALITY      YES
ALLOW_PONDING       YES
SKIP_STEADY_STATE   YES
SYS_FLOW_TOL        1
LAT_FLOW_TOL        1
START_DATE          01/01/2000
START_TIME          00:00
END_DATE            01/01/2000
END_TIME            06:00
REPORT_START_DATE   01/01/2000
REPORT_START_TIME   00:00
SWEEP_START         01/01
SWEEP_END           01/01
DRY_DAYS            0
REPORT_STEP         00:05:00
WET_STEP            00:00:30
DRY_STEP            00:30:00
ROUTING_STEP        30
LENGTHENING_STEP    1
VARIABLE_STEP       0
MINIMUM_STEP        0.001
INERTIAL_DAMPING    PARTIAL
NORMAL_FLOW_LIMITED BOTH
MIN_SURFAREA        25.0
MAX_TRIALS          20
HEAD_TOLERANCE      0.001
THREADS             8

[JUNCTIONS]
;;Name              Elev                Ymax                Y0                  Ysur                Apond
;;----------------  ----------------    ----------------    ----------------    ----------------    ----------------
13S0001             41.95
13S0002             40.87
13S0003             40.65
13S0004             38.65
13S0005             37.5
13S0006             37.28
13S0007             37.02
13S0008             36.05
13S0009             35.68
13S0010             34.86
13S0011             34.05
13S0012             33.95
13S0013             33.4
13S0014             33.03
13S0015             32.85
13S0016             32.8
13S0017             32.75
13S0018             33.2
13S0019             33.08
13S0020             37.15
13S0021             36.01
13S0022             37.0
13S0023             32.67
13S0024             30.33
13S0025             31.07
13S0026             32.46
13S0027             29.27
13S0028             28.14
13S0029             26.02
13S0030             26.31
13S0031             26.79
13S0032             25.76
13S0033             25.53
13S0034             25.2
13S0035             25.1
13S0036             26.6
13S0037             25.94
13S0038             24.83
13S0039             26.31
13S0040             24.75
13S0041             28.11
13S0042             32.82
13S0043             31.43
13S0044             26.58
13S0045             25.49
13S0046             25.29
13S0047             23.93
13S0048             25.59
13S0049             25.87
13S0050             27.54
13S0051             27.9
13S0052             24.49
13S0053             25.0
13S0054             23.63
13S0055             34.43
13S0056             33.93
13S0057             32.85
13S0058             32.95
13S0059             32.53
13S0060             29.5
13S0061             29.17
13S0062             29.59
13S0063             29.26
13S0064             29.12
13S0065             29.35
13S0066             29.9
13S0067             30.45
13S0068             32.58
13S0069             35.63
13S0070             34.87
13S0071             34.85
13S0072             31.17
13S0073             31.04
13S0074             30.17
13S0075             29.51
13S0076             29.31
13S0077             29.23
13S0078             33.96
13S0079             33.21
13S0080             32.96
13S0081             31.57
13S0082             32.29
13S0083             32.75
13S0084             32.47
13S0085             37.12
13S0086             36.84
13S0087             36.47
13S0088             37.15
13S0089             36.27
13S0090             35.48
13S0091             30.01
13S0092             30.22
13S0093             30.14
13S0094             29.87
13S0095             30.32
13S0096             41.63
13S0097             40.45
13S0098             37.09
13S0099             37.28
13S0100             37.15
13S0101             36.02
13S0102             36.7
13S0103             31.57
13S0104             31.31
13S0105             28.64
13S0106             27.79
13S0107             27.2
13S0108             27.73
13S0109             27.81
13S0110             32.52
13S0111             32.21
13S0112             29.9
13S0113             26.44
13S0114             26.1
13S0115             25.96
13S0116             25.67
13S0117             24.73
13S0118             25.94
13S0119             37.0
13S0120             36.97
13S0121             35.8
13S0122             32.73
13S0123             32.11
13S0124             30.83
13S0125             30.5
13S0126             30.23
13S0127             30.34
13S0128             30.75
13S0129             31.25
13S0130             29.34
13S0131             30.11
13S0132             33.39
13S0133             32.77
13S0134             32.72
13S0135             32.58
13S0136             26.52
13S0137             25.97
13S0138             25.21
13S0139             25.07
13S0140             33.13
13S0141             30.05
13S0142             27.41
13S0143             28.93
13S0144             28.91
13S0145             26.14
13S0146             25.59
13S0147             25.4
13S0148             23.34
13S0149             23.08
13S0150             23.32
13S0151             27.67
13S0152             27.69
13S0153             27.63
13S0154             27.48
13S0155             27.43
13S0156             26.98
13S0157             27.81
13S0158             25.63
13S0159             25.15
13S0160             24.65
13S0161             29.51
13S0162             24.45
13S0163             24.65
13S0164             25.39
13S0165             24.34
13S0166             24.84
13S0167             24.24
13S0168             24.07
13S0169             23.89
13S0170             22.55
13S0171             23.21
13S0172             23.36
13S0173             22.12
13S0174             21.93
13S0175             21.45
13S0176             21.49
13S0177             21.43
13S0178             22.49
13S0179             22.16
13S0180             22.42
13S0181             21.59
13S0182             21.35
13S0183             21.16
13S0185             20.2
13S0186             20.3
13S0187             22.48
13S0188             21.52
13S0189             23.54
13S0190             24.0
13S0191             23.7
13S0192             23.13
13S0193             24.45
13S0194             24.15
13S0195             22.27
13S0196             27.0
13S0197             27.11
13S0198             27.98
13S0199             34.55
13S0200             33.05
13S0201             33.93
13S0202             31.63
13S0203             27.9
13S0204             34.38
13S0205             35.87
13S0206             33.26
13S0207             32.68
13S0208             32.35
13S0209             30.5
13S0210             29.5
13S0211             25.57
13S0212             24.13
13S0213             22.57
13S0214             22.91
13S0215             27.14
13S0216             24.29
13S0218             28.63
13S0219             28.57
13S0220             35.19
13S0221             24.35
Irr_cul.1           20.8
ds_culvert.1        20.5

[OUTFALLS]
;;Name              Elev                Type                Param1              Gated               RouteTo
;;                                      FREE                                    Gated               RouteTo
;;                                      NORMAL                                  Gated               RouteTo
;;                                      FIXED               Stage               Gated               RouteTo
;;                                      TIDAL               Tcurve              Gated               RouteTo
;;                                      TIMESERIES          Tseries             Gated               RouteTo
;;----------------  ----------------    ----------------    ----------------    ----------------    ----------------
13S0184             19.85               FIXED               19.85
Irr_cul.2           20.7                FIXED               20.7
ds_culvert.2        20.0                FIXED               20.0

[CONDUITS]
;;Name              From Node           To Node             Length              Roughness           InOffset            OutOffset           InitFlow            MaxFlow
;;----------------  ----------------    ----------------    ----------------    ----------------    ----------------    ----------------    ----------------    ----------------
13C0001             13S0001             13S0006             63.2                0.016               0.0                 0.0
13C0002             13S0002             13S0003             8.3                 0.016               0.0                 0.0
13C0003             13S0003             13S0004             24.0                0.016               0.0                 0.0
13C0004             13S0004             13S0005             12.6                0.016               0.0                 0.0
13C0005             13S0005             13S0006             10.6                0.016               0.0                 0.0
13C0006             13S0006             13S0007             22.6                0.016               0.0                 0.0
13C0007             13S0007             13S0008             13.8                0.016               0.0                 0.0
13C0008             13S0008             13S0009             7.3                 0.016               0.0                 0.0
13C0009             13S0009             13S0010             39.2                0.016               0.0                 0.0
13C0010             13S0010             13S0011             35.1                0.016               0.0                 0.0
13C0011             13S0011             13S0012             8.0                 0.016               0.0                 0.0
13C0012             13S0012             13S0201             4.5                 0.016               0.0                 0.0
13C0013             13S0013             13S0014             6.1                 0.016               0.0                 0.0
13C0014             13S0014             13S0015             11.6                0.016               0.0                 0.0
13C0015             13S0015             13S0016             5.8                 0.016               0.0                 0.0
13C0016             13S0016             13S0202             21.8                0.016               0.0                 0.0
13C0016A            13S0016             13S0017             4.7                 0.016               0.0                 0.0
13C0017             13S0017             13S0023             73.9                0.016               0.0                 0.0
13C0018             13S0018             13S0019             11.4                0.016               0.0                 0.0
13C0019             13S0019             13S0015             15.6                0.016               0.0                 0.0
13C0020             13S0020             13S0021             11.5                0.016               0.0                 0.0
13C0021             13S0021             13S0055             75.8                0.016               0.0                 0.0
13C0022             13S0022             13S0021             16.6                0.016               0.0                 0.3999999999999986
13C0023             13S0023             13S0024             36.8                0.016               0.0                 0.0
13C0024             13S0024             13S0027             32.1                0.016               0.0                 0.40000000000000213
13C0025             13S0025             13S0027             26.0                0.016               0.0                 0.0
13C0026             13S0026             13S0025             26.3                0.016               0.0                 0.0
13C0027             13S0027             13S0028             59.4                0.016               0.0                 0.0
13C0028             13S0028             13S0031             41.6                0.016               0.0                 0.0
13C0029             13S0029             13S0034             47.7                0.016               0.0                 0.0
13C0030             13S0030             13S0032             42.3                0.016               0.0                 0.0
13C0030A            13S0030             13S0029             10.2                0.016               0.0                 0.0
13C0031             13S0031             13S0030             40.4                0.016               0.0                 0.0
13C0032             13S0032             13S0211             6.9                 0.016               0.0                 0.0
13C0033             13S0033             13S0034             6.4                 0.016               0.0                 0.0
13C0034             13S0034             13S0212             39.8                0.016               0.0                 0.0
13C0034A            13S0034             13S0035             9.2                 0.016               0.0                 0.0
13C0035             13S0035             13S0038             25.8                0.016               0.0                 0.0
13C0036             13S0036             13S0033             34.7                0.016               0.0                 0.0
13C0037             13S0037             13S0033             13.8                0.016               0.0                 0.0
13C0038             13S0038             13S0040             12.9                0.016               0.0                 0.0
13C0039             13S0039             13S0040             7.3                 0.016               0.0                 0.0
13C0040             13S0040             13S0052             48.5                0.016               0.0                 0.0
13C0041             13S0041             13S0044             42.7                0.016               0.0                 0.05000000000000071
13C0042             13S0042             13S0043             29.8                0.016               0.0                 0.3000000000000007
13C0043             13S0043             13S0041             82.6                0.016               0.0                 0.0
13C0044             13S0044             13S0045             20.9                0.016               0.0                 0.20000000000000284
13C0045             13S0045             13S0047             32.1                0.016               0.0                 0.0
13C0046             13S0046             13S0054             27.5                0.016               0.0                 0.0
13C0047             13S0047             13S0054             11.0                0.016               0.0                 0.0
13C0048             13S0048             13S0193             9.4                 0.016               0.0                 0.0
13C0049             13S0049             13S0048             20.0                0.016               0.0                 0.0
13C0050             13S0050             13S0049             60.8                0.016               0.0                 0.0
13C0051             13S0051             13S0050             9.9                 0.016               0.0                 0.0
13C0052             13S0052             13S0193             6.4                 0.016               0.0                 0.0
13C0053             13S0053             13S0054             12.8                0.016               0.0                 0.0
13C0054             13S0054             13S0192             67.3                0.016               0.0                 0.0
13C0055             13S0055             13S0056             10.2                0.016               0.0                 0.0
13C0056             13S0056             13S0057             28.1                0.016               0.0                 0.0
13C0057             13S0057             13S0059             24.2                0.016               0.0                 0.0
13C0058             13S0058             13S0057             7.3                 0.016               0.0                 0.0
13C0059             13S0059             13S0060             55.6                0.016               0.0                 0.370000000000001
13C0060             13S0060             13S0061             5.8                 0.016               0.0                 0.29999999999999716
13C0061             13S0061             13S0064             7.4                 0.016               0.0                 0.0
13C0062             13S0062             13S0061             5.2                 0.016               0.0                 0.3999999999999986
13C0063             13S0063             13S0064             12.6                0.016               0.0                 0.0
13C0064             13S0064             13S0198             36.6                0.016               0.0                 0.0
13C0065             13S0065             13S0064             6.1                 0.016               0.0                 0.0
13C0066             13S0066             13S0062             24.8                0.016               0.0                 0.0
13C0067             13S0067             13S0066             33.0                0.016               0.0                 0.0
13C0068             13S0068             13S0067             34.2                0.016               0.0                 0.0
13C0069             13S0069             13S0070             13.1                0.016               0.0                 0.3500000000000014
13C0070             13S0070             13S0071             7.5                 0.016               0.0                 0.0
13C0071             13S0071             13S0068             83.1                0.016               0.0                 0.0
13C0072             13S0072             13S0073             11.7                0.016               0.0                 0.0
13C0073             13S0073             13S0203             48.5                0.016               0.0                 0.0
13C0074             13S0074             13S0075             8.0                 0.016               0.0                 0.14999999999999858
13C0075             13S0075             13S0077             21.4                0.016               0.0                 0.0
13C0076             13S0076             13S0077             19.5                0.016               0.0                 0.0
13C0077             13S0077             13S0109             96.5                0.016               0.0                 0.0
13C0078             13S0078             13S0079             67.5                0.016               0.0                 0.0
13C0079             13S0079             13S0080             7.2                 0.016               0.0                 0.0
13C0080             13S0080             13S0081             25.6                0.016               0.0                 0.0
13C0081             13S0081             13S0091             61.2                0.016               0.0                 0.0
13C0082             13S0082             13S0081             22.5                0.016               0.0                 0.0
13C0083             13S0083             13S0084             10.3                0.016               0.0                 0.0
13C0084             13S0084             13S0082             30.4                0.016               0.0                 0.0
13C0085             13S0085             13S0089             15.0                0.016               0.0                 0.0
13C0086             13S0086             13S0087             9.0                 0.016               0.0                 0.0
13C0087             13S0087             13S0089             7.9                 0.016               0.0                 0.0
13C0088             13S0088             13S0087             15.0                0.016               0.0                 0.0
13C0089             13S0089             13S0090             16.2                0.016               0.0                 0.0
13C0090             13S0090             13S0199             38.4                0.016               0.0                 0.0
13C0091             13S0091             13S0094             17.9                0.016               0.0                 0.0
13C0092             13S0092             13S0093             10.1                0.016               0.0                 0.0
13C0093             13S0093             13S0094             5.4                 0.016               0.0                 0.0
13C0094             13S0094             13S0218             45.4                0.016               0.0                 0.0
13C0095             13S0095             13S0093             13.0                0.016               0.0                 0.0
13C0096             13S0096             13S0097             24.0                0.016               0.0                 0.0
13C0097             13S0097             13S0098             69.2                0.016               0.0                 0.0
13C0098             13S0098             13S0102             9.6                 0.016               0.0                 0.0
13C0099             13S0099             13S0102             5.6                 0.016               0.0                 0.0
13C0100             13S0100             13S0101             7.9                 0.016               0.0                 0.0
13C0101             13S0101             13S0104             97.8                0.016               0.0                 0.0
13C0102             13S0102             13S0101             13.0                0.016               0.0                 0.0
13C0103             13S0103             13S0104             13.6                0.016               0.0                 0.15000000000000213
13C0104             13S0104             13S0105             78.6                0.016               0.0                 0.0
13C0105             13S0105             13S0106             24.9                0.016               0.0                 0.1999999999999993
13C0106             13S0106             13S0108             22.0                0.016               0.0                 0.0
13C0107             13S0107             13S0215             16.7                0.016               0.0                 0.0
13C0108             13S0108             13S0215             7.9                 0.016               0.0                 0.0
13C0109             13S0109             13S0215             18.3                0.016               0.0                 0.0
13C0110             13S0110             13S0111             14.3                0.016               0.0                 0.0
13C0111             13S0111             13S0112             66.0                0.016               0.0                 0.0
13C0112             13S0112             13S0114             62.0                0.016               0.0                 1.1999999999999993
13C0113             13S0113             13S0114             9.9                 0.016               0.0                 0.0
13C0114             13S0114             13S0115             2.0                 0.016               0.0                 0.0
13C0115             13S0115             13S0117             82.4                0.016               0.0                 0.0
13C0116             13S0116             13S0117             8.3                 0.016               0.0                 0.0
13C0117             13S0117             13S0162             20.7                0.016               0.0                 0.0
13C0118             13S0118             13S0116             11.6                0.016               0.0                 0.0
13C0119             13S0119             13S0120             11.5                0.016               0.0                 0.0
13C0120             13S0120             13S0121             9.8                 0.016               0.0                 0.0
13C0121             13S0121             13S0123             86.2                0.016               0.0                 0.04999999999999716
13C0122             13S0122             13S0123             13.6                0.016               0.0                 0.0
13C0123             13S0123             13S0125             52.8                0.016               0.0                 0.4299999999999997
13C0124             13S0124             13S0125             10.4                0.016               0.0                 0.14999999999999858
13C0125             13S0125             13S0131             8.7                 0.016               0.0                 0.0
13C0126             13S0126             13S0131             5.8                 0.016               0.0                 0.0
13C0127             13S0127             13S0126             9.1                 0.016               0.0                 0.0
13C0128             13S0128             13S0131             17.3                0.016               0.0                 0.0
13C0129             13S0129             13S0128             22.5                0.016               0.0                 0.0
13C0130             13S0130             13S0151             75.8                0.016               0.0                 0.0
13C0131             13S0131             13S0130             36.9                0.016               0.0                 0.0
13C0132             13S0132             13S0133             4.6                 0.016               0.0                 0.22999999999999687
13C0133             13S0133             13S0134             7.3                 0.016               0.0                 0.0
13C0134             13S0134             13S0135             45.8                0.016               0.0                 0.0
13C0135             13S0135             13S0127             46.5                0.016               0.0                 0.0
13C0136             13S0136             13S0137             12.0                0.016               0.0                 0.05000000000000071
13C0137             13S0137             13S0138             18.8                0.016               0.0                 0.0
13C0138             13S0138             13S0139             33.7                0.016               0.0                 0.0
13C0139             13S0139             13S0148             46.2                0.016               0.0                 0.0
13C0140             13S0140             13S0141             57.0                0.016               0.0                 0.3000000000000007
13C0141             13S0141             13S0142             40.9                0.016               0.0                 0.8999999999999986
13C0142             13S0142             13S0145             103.1               0.016               0.0                 0.5999999999999979
13C0143             13S0143             13S0144             6.4                 0.016               0.0                 0.0
13C0144             13S0144             13S0142             11.9                0.016               0.0                 0.8000000000000007
13C0145             13S0145             13S0147             24.8                0.016               0.0                 0.0
13C0146             13S0146             13S0147             2.6                 0.016               0.0                 0.0
13C0147             13S0147             13S0149             80.8                0.016               0.0                 0.0
13C0148             13S0148             13S0214             7.6                 0.016               0.0                 0.0
13C0149             13S0149             13S0214             5.6                 0.016               0.0                 0.0
13C0150             13S0150             13S0149             2.6                 0.016               0.0                 0.0
13C0151             13S0151             13S0154             3.8                 0.016               0.0                 0.0
13C0152             13S0152             13S0153             9.0                 0.016               0.0                 0.0
13C0153             13S0153             13S0155             1.8                 0.016               0.0                 0.0
13C0154             13S0154             13S0155             12.9                0.016               0.0                 0.0
13C0155             13S0155             13S0156             27.3                0.016               0.0                 0.0
13C0156             13S0156             13S0158             77.4                0.016               0.0                 0.0
13C0157             13S0157             13S0156             12.9                0.016               0.0                 0.0
13C0158             13S0158             13S0159             12.8                0.016               0.0                 0.0
13C0159             13S0159             13S0160             7.3                 0.016               0.0                 0.0
13C0160             13S0160             13S0169             35.6                0.016               0.0                 0.0
13C0161             13S0161             13S0159             72.1                0.016               0.0                 1.0500000000000007
13C0162             13S0162             13S0165             15.38               0.016               0.0                 0.0
13C0163             13S0163             13S0162             2.1                 0.016               0.0                 0.0
13C0164             13S0164             13S0165             7.3                 0.016               0.0                 0.6499999999999986
13C0166             13S0166             13S0216             11.9                0.016               0.0                 0.0
13C0167             13S0167             13S0168             8.0                 0.016               0.0                 0.0
13C0168             13S0168             13S0169             23.8                0.016               0.0                 0.0
13C0169             13S0169             13S0170             94.7                0.016               0.0                 0.0
13C0170             13S0170             13S0177             112.6               0.016               0.0                 0.0