[OPTIONS]
;;Option            Value
;;----------------  ----------------
FLOW_UNITS          CMS
INFILTRATION        GREEN_AMPT
FLOW_ROUTING        DYNWAVE
LINK_OFFSETS        DEPTH
FORCE_MAIN_EQUATION H-W
IGNORE_RAINFALL     NO
IGNORE_SNOWMELT     YES
IGNORE_GROUNDWATER  YES
IGNORE_RDII         YES
IGNORE_QUALITY      YES
ALLOW_PONDING       YES
SKIP_STEADY_STATE   YES
SYS_FLOW_TOL        1
LAT_FLOW_TOL        1
START_DATE          01/01/2000
START_TIME          00:00
END_DATE            01/01/2000
END_TIME            06:00
REPORT_START_DATE   01/01/2000
REPORT_START_TIME   00:00
SWEEP_START         01/01
SWEEP_END           01/01
DRY_DAYS            0
REPORT_STEP         00:05:00
WET_STEP            00:00:30
DRY_STEP            00:30:00
ROUTING_STEP        30
LENGTHENING_STEP    1
VARIABLE_STEP       0
MINIMUM_STEP        0.001
INERTIAL_DAMPING    PARTIAL
NORMAL_FLOW_LIMITED BOTH
MIN_SURFAREA        25.0
MAX_TRIALS          20
HEAD_TOLERANCE      0.001
THREADS             8

[JUNCTIONS]
;;Name              Elev                Ymax                Y0                  Ysur                Apond
;;----------------  ----------------    ----------------    ----------------    ----------------    ----------------
TC_B_0250.1         18.52
TC_B_0300.1         16.7
TC_B_0320.1         14.7
TC_B_0350.1         10.6
TC_B_0360.1         9.25
TC_B_0390.1         16.2
TC_B_0400.1         15.35
TC_B_0440.1         10.1
TC_B_0450.1         7.1
TC_B_0460.1         6.29
TC_B_0510.1         10.6
TC_B_0540.1         12.93
TC_B_0550.1         11.33
TC_B_0560.1         10.81
TC_B_0600.1         6.29
TC_B_0610.1         6.08
TC_B_0710.1         11.5
TC_B_0750.1         11.04
TC_B_0840.1         5.71
TC_B_0860.1         3.52
TC_B_0920.1         15.5
TC_B_0930.1         13.31
TC_B_0970.1         8.94
TC_B_0970.2         8.72
TC_B_0980.2         8.6
TC_B_1040.1         2.6
TC_B_1050.1         0.73
TC_B_1080.1         -99999.0
TC_B_1090.1         -0.31
TC_B_1100.1         -0.88
TC_B_1130.1         2.47
TC_B_1140.1         2.38
TC_B_1250.1         2.24
TC_B_1260.1         1.4
TC_B_1270.1         0.98
TC_B_1390.1         0.67
TC_B_1400.1         0.49
TC_B_1420.1         0.1
TC_B_1440.1         -0.2
TC_B_1460.1         -0.41
TC_B_1470.1         -0.42
TC_B_1490.1         -1.6
TC_B_1510.1         -2.0
TC_B_1720.1         3.22
TC_C_1220.1         3.66
TC_R_0020.1         29.74
TC_R_0030.1         33.88
TC_R_0060.1         30.56
TC_R_0080.1         28.35
TC_R_0110.1         23.23
TC_R_0120.1         21.09
TC_R_0150.1         17.02
TC_R_0190.1         12.94
TC_R_0260.1         17.0
TC_R_0270.1         13.45
TC_R_0310.1         15.45
TC_R_0330.1         13.06
TC_R_0380.1         18.4
TC_R_0420.1         13.21
TC_R_0430.1         11.24
TC_R_0500.1         12.14
TC_R_0520.1         9.65
TC_R_0520.2         7.69
TC_R_0530.1         13.29
TC_R_0570.1         9.87
TC_R_0630.1         5.52
TC_R_0690.1         14.41
TC_R_0700.1         12.06
TC_R_0740.1         12.69
TC_R_0780.1         10.47
TC_R_0790.1         9.16
TC_R_0800.1         8.87
TC_R_0890.1         21.03
TC_R_0900.1         20.1
TC_R_0910.1         19.29
TC_R_0940.1         14.0
TC_R_0950.1         12.2
TC_R_0960.1         10.82
TC_R_1000.1         10.35
TC_R_1010.1         5.84
TC_R_1010.2         5.4
TC_R_1070.1         1.54
TC_R_1110.1         4.78
TC_R_1210.1         3.98
TC_R_1300.1         5.64
TC_R_1320.1         4.58
TC_R_1330.1         3.59
TC_R_1340.1         2.8
TC_R_1350.1         2.56
TC_R_1520.1         -0.22
TC_R_1550.1         11.53
TC_R_1560.1         7.96
TC_R_1570.1         6.61
TC_R_1580.1         5.24
TC_R_1600.1         3.91
TC_R_1610.1         3.8
TC_R_1620.1         3.77
TC_R_1640.1         9.14
TC_R_1650.1         8.72
TC_R_1660.1         7.71
TC_R_1670.1         7.04
TC_R_1680.1         6.36
TC_R_1690.1         5.93
TC_R_1710.1         4.93
TC__0180.1          14.92
TC__0580.1          8.9
TC_b_0200.1         12.49

[OUTFALLS]
;;Name              Elev                Type                Param1              Gated               RouteTo
;;                                      FREE                                    Gated               RouteTo
;;                                      NORMAL                                  Gated               RouteTo
;;                                      FIXED               Stage               Gated               RouteTo
;;                                      TIDAL               Tcurve              Gated               RouteTo
;;                                      TIMESERIES          Tseries             Gated               RouteTo
;;----------------  ----------------    ----------------    ----------------    ----------------    ----------------
TC_B_0250.2         18.51               FIXED               18.51
TC_B_0300.2         16.7                FIXED               16.7
TC_B_0320.2         14.7                FIXED               14.7
TC_B_0350.2         10.6                FIXED               10.6
TC_B_0360.2         9.25                FIXED               9.25
TC_B_0390.2         16.04               FIXED               16.04
TC_B_0400.2         15.16               FIXED               15.16
TC_B_0440.2         10.1                FIXED               10.1
TC_B_0450.2         7.1                 FIXED               7.1
TC_B_0460.2         6.25                FIXED               6.25
TC_B_0510.2         10.6                FIXED               10.6
TC_B_0540.2         12.89               FIXED               12.89
TC_B_0550.2         11.25               FIXED               11.25
TC_B_0560.2         10.81               FIXED               10.81
TC_B_0590.2         7.69                FIXED               7.69
TC_B_0600.2         6.27                FIXED               6.27
TC_B_0610.2         5.96                FIXED               5.96
TC_B_0710.2         11.46               FIXED               11.46
TC_B_0750.2         10.85               FIXED               10.85
TC_B_0840.2         5.63                FIXED               5.63
TC_B_0860.2         3.5                 FIXED               3.5
TC_B_0920.2         15.5                FIXED               15.5
TC_B_0930.2         13.29               FIXED               13.29
TC_B_0990.2         8.6                 FIXED               8.6
TC_B_1040.2         2.08                FIXED               2.08
TC_B_1050.2         0.65                FIXED               0.65
TC_B_1080.2         -99999.0            FIXED               -99999.0
TC_B_1090.2         -0.33               FIXED               -0.33
TC_B_1100.2         -0.9                FIXED               -0.9
TC_B_1130.2         2.46                FIXED               2.46
TC_B_1140.2         2.32                FIXED               2.32
TC_B_1260.2         1.34                FIXED               1.34
TC_B_1270.2         0.84                FIXED               0.84
TC_B_1390.2         0.61                FIXED               0.61
TC_B_1400.2         0.47                FIXED               0.47
TC_B_1420.2         0.06                FIXED               0.06
TC_B_1440.2         -0.2                FIXED               -0.2
TC_B_1460.2         -0.42               FIXED               -0.42
TC_B_1470.2         -0.43               FIXED               -0.43
TC_B_1490.2         -1.4                FIXED               -1.4
TC_B_1510.2         -2.0                FIXED               -2.0
TC_B_1720.2         3.11                FIXED               3.11
TC_C_1220.2         3.53                FIXED               3.53
TC_R_0020.2         29.5                FIXED               29.5
TC_R_0030.2         33.76               FIXED               33.76
TC_R_0060.2         30.54               FIXED               30.54
TC_R_0080.2         28.33               FIXED               28.33
TC_R_0110.2         22.26               FIXED               22.26
TC_R_0120.2         20.95               FIXED               20.95
TC_R_0150.2         16.89               FIXED               16.89
TC_R_0190.2         12.9                FIXED               12.9
TC_R_0260.2         16.9                FIXED               16.9
TC_R_0270.2         12.55               FIXED               12.55
TC_R_0310.2         15.45               FIXED               15.45
TC_R_0330.2         12.96               FIXED               12.96
TC_R_0380.2         17.34               FIXED               17.34
TC_R_0420.2         13.01               FIXED               13.01
TC_R_0430.2         11.07               FIXED               11.07
TC_R_0500.2         11.95               FIXED               11.95
TC_R_0530.2         13.15               FIXED               13.15
TC_R_0570.2         9.7                 FIXED               9.7
TC_R_0630.2         5.43                FIXED               5.43
TC_R_0690.2         14.13               FIXED               14.13
TC_R_0700.2         11.84               FIXED               11.84
TC_R_0740.2         12.44               FIXED               12.44
TC_R_0780.2         10.45               FIXED               10.45
TC_R_0790.2         9.12                FIXED               9.12
TC_R_0800.2         8.82                FIXED               8.82
TC_R_0890.2         20.56               FIXED               20.56
TC_R_0900.2         19.9                FIXED               19.9
TC_R_0910.2         18.53               FIXED               18.53
TC_R_0940.2         13.63               FIXED               13.63
TC_R_0950.2         11.92               FIXED               11.92
TC_R_0960.2         10.6                FIXED               10.6
TC_R_1000.2         10.3                FIXED               10.3
TC_R_1020.2         5.22                FIXED               5.22
TC_R_1070.2         1.51                FIXED               1.51
TC_R_1110.2         4.7                 FIXED               4.7
TC_R_1210.2         3.84                FIXED               3.84
TC_R_1300.2         5.61                FIXED               5.61
TC_R_1320.2         4.39                FIXED               4.39
TC_R_1330.2         3.34                FIXED               3.34
TC_R_1340.2         2.68                FIXED               2.68
TC_R_1350.2         2.55                FIXED               2.55
TC_R_1520.2         -0.26               FIXED               -0.26
TC_R_1550.2         10.87               FIXED               10.87
TC_R_1560.2         7.73                FIXED               7.73
TC_R_1570.2         6.44                FIXED               6.44
TC_R_1580.2         5.11                FIXED               5.11
TC_R_1600.2         3.9                 FIXED               3.9
TC_R_1610.2         3.79                FIXED               3.79
TC_R_1620.2         3.75                FIXED               3.75
TC_R_1640.2         9.04                FIXED               9.04
TC_R_1650.2         8.65                FIXED               8.65
TC_R_1660.2         7.6                 FIXED               7.6
TC_R_1670.2         6.75                FIXED               6.75
TC_R_1680.2         6.32                FIXED               6.32
TC_R_1690.2         5.8                 FIXED               5.8
TC_R_1710.2         4.79                FIXED               4.79
TC__0180.2          14.71               FIXED               14.71
TC__0580.2          8.8                 FIXED               8.8
TC_b_0200.2         12.49               FIXED               12.49

[CONDUITS]
;;Name              From Node           To Node             Length              Roughness           InOffset            OutOffset           InitFlow            MaxFlow
;;----------------  ----------------    ----------------    ----------------    ----------------    ----------------    ----------------    ----------------    ----------------
TC_B_0250           TC_B_0250.1         TC_B_0250.2         8.1                 0.012               0.0                 0.0
TC_B_0300           TC_B_0300.1         TC_B_0300.2         1.2                 0.012               0.0                 0.0
TC_B_0320           TC_B_0320.1         TC_B_0320.2         9.1                 0.012               0.0                 0.0
TC_B_0350           TC_B_0350.1         TC_B_0350.2         20.0                0.012               0.0                 0.0
TC_B_0360           TC_B_0360.1         TC_B_0360.2         1.2                 0.012               0.0                 0.0
TC_B_0390           TC_B_0390.1         TC_B_0390.2         10.0                0.012               0.0                 0.0
TC_B_0400           TC_B_0400.1         TC_B_0400.2         25.0                0.012               0.0                 0.0
TC_B_0440           TC_B_0440.1         TC_B_0440.2         12.7                0.012               0.0                 0.0
TC_B_0450           TC_B_0450.1         TC_B_0450.2         10.0                0.012               0.0                 0.0
TC_B_0460           TC_B_0460.1         TC_B_0460.2         42.3                0.012               0.0                 0.0
TC_B_0510           TC_B_0510.1         TC_B_0510.2         5.9                 0.012               0.0                 0.0
TC_B_0540           TC_B_0540.1         TC_B_0540.2         1.5                 0.012               0.0                 0.0
TC_B_0550           TC_B_0550.1         TC_B_0550.2         1.7                 0.012               0.0                 0.0
TC_B_0560           TC_B_0560.1         TC_B_0560.2         1.9                 0.012               0.0                 0.0
TC_B_0590           TC_R_0520.2         TC_B_0590.2         2.9                 0.012               0.0                 0.0
TC_B_0600           TC_B_0600.1         TC_B_0600.2         2.1                 0.012               0.0                 0.0
TC_B_0610           TC_B_0610.1         TC_B_0610.2         16.0                0.012               0.0                 0.0
TC_B_0710           TC_B_0710.1         TC_B_0710.2         6.3                 0.012               0.0                 0.0
TC_B_0750           TC_B_0750.1         TC_B_0750.2         20.1                0.012               0.0                 0.0
TC_B_0840           TC_B_0840.1         TC_B_0840.2         39.9                0.012               0.0                 0.0
TC_B_0860           TC_B_0860.1         TC_B_0860.2         16.2                0.012               0.0                 0.0
TC_B_0920           TC_B_0920.1         TC_B_0920.2         5.9                 0.012               0.0                 0.0
TC_B_0930           TC_B_0930.1         TC_B_0930.2         1.8                 0.012               0.0                 0.0
TC_B_0970           TC_B_0970.1         TC_B_0970.2         3.71                0.012               0.0                 0.16999999999999993
TC_B_0980           TC_B_0970.2         TC_B_0980.2         5.3                 0.012               0.0                 0.08999999999999986
TC_B_0990           TC_B_0980.2         TC_B_0990.2         10.0                0.012               0.0                 0.0
TC_B_1040           TC_B_1040.1         TC_B_1040.2         43.0                0.012               0.0                 0.0
TC_B_1050           TC_B_1050.1         TC_B_1050.2         21.0                0.012               0.0                 0.0
TC_B_1080           TC_B_1080.1         TC_B_1080.2         10.0                0.012               0.0                 0.0
TC_B_1090           TC_B_1090.1         TC_B_1090.2         17.6                0.012               0.0                 0.0
TC_B_1100           TC_B_1100.1         TC_B_1100.2         20.5                0.012               0.0                 0.0
TC_B_1130           TC_B_1130.1         TC_B_1130.2         7.9                 0.012               0.0                 0.0
TC_B_1140           TC_B_1140.1         TC_B_1140.2         16.0                0.012               0.0                 0.0
TC_B_1250           TC_B_1250.1         TC_B_1140.2         10.0                0.012               0.0                 0.0
TC_B_1260           TC_B_1260.1         TC_B_1260.2         10.0                0.012               0.0                 0.0
TC_B_1270           TC_B_1270.1         TC_B_1270.2         20.0                0.012               0.0                 0.0
TC_B_1390           TC_B_1390.1         TC_B_1390.2         23.0                0.012               0.0                 0.0
TC_B_1400           TC_B_1400.1         TC_B_1400.2         7.8                 0.012               0.0                 0.0
TC_B_1420           TC_B_1420.1         TC_B_1420.2         21.3                0.012               0.0                 0.0
TC_B_1440           TC_B_1440.1         TC_B_1440.2         24.8                0.012               0.0                 0.0
TC_B_1460           TC_B_1460.1         TC_B_1460.2         16.4                0.012               0.0                 0.0
TC_B_1470           TC_B_1470.1         TC_B_1470.2         8.9                 0.012               0.0                 0.0
TC_B_1490           TC_B_1490.1         TC_B_1490.2         10.0                0.012               0.0                 0.0
TC_B_1510           TC_B_1510.1         TC_B_1510.2         10.0                0.012               0.0                 0.0
TC_B_1720           TC_B_1720.1         TC_B_1720.2         19.9                0.012               0.0                 0.0
TC_C_0180           TC__0180.1          TC__0180.2          38.5                0.012               0.0                 0.0
TC_C_0410           TC_B_0400.1         TC_B_0400.2         25.0                0.012               0.0                 0.0
TC_C_1220           TC_C_1220.1         TC_C_1220.2         30.0                0.012               0.0                 0.0
TC_R_0020           TC_R_0020.1         TC_R_0020.2         15.5                0.012               0.0                 0.0
TC_R_0030           TC_R_0030.1         TC_R_0030.2         14.5                0.012               0.0                 0.0
TC_R_0060           TC_R_0060.1         TC_R_0060.2         8.3                 0.012               0.0                 0.0
TC_R_0080           TC_R_0080.1         TC_R_0080.2         14.6                0.012               0.0                 0.0
TC_R_0110           TC_R_0110.1         TC_R_0110.2         97.0                0.012               0.0                 0.0
TC_R_0120           TC_R_0120.1         TC_R_0120.2         23.0                0.012               0.0                 0.0
TC_R_0150           TC_R_0150.1         TC_R_0150.2         30.0                0.012               0.0                 0.0
TC_R_0190           TC_R_0190.1         TC_R_0190.2         20.1                0.012               0.0                 0.0
TC_R_0260           TC_R_0260.1         TC_R_0260.2         20.3                0.012               0.0                 0.0
TC_R_0270           TC_R_0270.1         TC_R_0270.2         55.0                0.012               0.0                 0.0
TC_R_0310           TC_R_0310.1         TC_R_0310.2         20.8                0.012               0.0                 0.0
TC_R_0330           TC_R_0330.1         TC_R_0330.2         30.0                0.012               0.0                 0.0
TC_R_0380           TC_R_0380.1         TC_R_0380.2         125.0               0.012               0.0                 0.0
TC_R_0420           TC_R_0420.1         TC_R_0420.2         20.3                0.012               0.0                 0.0
TC_R_0430           TC_R_0430.1         TC_R_0430.2         20.0                0.012               0.0                 0.0
TC_R_0500           TC_R_0500.1         TC_R_0500.2         22.3                0.012               0.0                 0.0
TC_R_0520           TC_R_0520.1         TC_R_0520.2         140.0               0.012               0.0                 0.8799999999999999
TC_R_0530           TC_R_0530.1         TC_R_0530.2         5.0                 0.012               0.0                 0.0
TC_R_0570           TC_R_0570.1         TC_R_0570.2         19.5                0.012               0.0                 0.0
TC_R_0630           TC_R_0630.1         TC_R_0630.2         47.8                0.012               0.0                 0.0
TC_R_0690           TC_R_0690.1         TC_R_0690.2         20.05               0.012               0.0                 0.0
TC_R_0700           TC_R_0700.1         TC_R_0700.2         19.9                0.012               0.0                 0.0
TC_R_0740           TC_R_0740.1         TC_R_0740.2         20.0                0.012               0.0                 0.0
TC_R_0780           TC_R_0780.1         TC_R_0780.2         10.1                0.012               0.0                 0.0
TC_R_0790           TC_R_0790.1         TC_R_0790.2         13.2                0.012               0.0                 0.0
TC_R_0800           TC_R_0800.1         TC_R_0800.2         20.3                0.012               0.0                 0.0
TC_R_0890           TC_R_0890.1         TC_R_0890.2         60.0                0.012               0.0                 0.0
TC_R_0900           TC_R_0900.1         TC_R_0900.2         21.0                0.012               0.0                 0.0
TC_R_0910           TC_R_0910.1         TC_R_0910.2         84.0                0.012               0.0                 0.0
TC_R_0940           TC_R_0940.1         TC_R_0940.2         24.0                0.012               0.0                 0.0
TC_R_0950           TC_R_0950.1         TC_R_0950.2         21.5                0.012               0.0                 0.0
TC_R_0960           TC_R_0960.1         TC_R_0960.2         25.3                0.012               0.0                 0.0
TC_R_1000           TC_R_1000.1         TC_R_1000.2         9.8                 0.012               0.0                 0.0
TC_R_1010           TC_R_1010.1         TC_R_1010.2         107.0               0.012               0.0                 0.09999999999999964
TC_R_1020           TC_R_1010.2         TC_R_1020.2         59.8                0.012               0.0                 0.0
TC_R_1070           TC_R_1070.1         TC_R_1070.2         68.0                0.012               0.0                 0.0
TC_R_1110           TC_R_1110.1         TC_R_1110.2         24.0                0.012               0.0                 0.0
TC_R_1210           TC_R_1210.1         TC_R_1210.2         62.0                0.012               0.0                 0.0
TC_R_1300           TC_R_1300.1         TC_R_1300.2         9.5                 0.012               0.0                 0.0
TC_R_1320           TC_R_1320.1         TC_R_1320.2         8.7                 0.012               0.0                 0.0
TC_R_1330           TC_R_1330.1         TC_R_1330.2         124.0               0.012               0.0                 0.0
TC_R_1340           TC_R_1340.1         TC_R_1340.2         109.0               0.012               0.0                 0.0
TC_R_1350           TC_R_1350.1         TC_R_1350.2         21.8                0.012               0.0                 0.0
TC_R_1520           TC_R_1520.1         TC_R_1520.2         17.2                0.012               0.0                 0.0
TC_R_1550           TC_R_1550.1         TC_R_1550.2         20.0                0.012               0.0                 0.0
TC_R_1560           TC_R_1560.1         TC_R_1560.2         19.7                0.012               0.0                 0.0
TC_R_1570           TC_R_1570.1         TC_R_1570.2         19.7                0.012               0.0                 0.0
TC_R_1580           TC_R_1580.1         TC_R_1580.2         20.0                0.012               0.0                 0.0
TC_R_1600           TC_R_1600.1         TC_R_1600.2         20.8                0.012               0.0                 0.0
TC_R_1610           TC_R_1610.1         TC_R_1610.2         26.9                0.012               0.0                 0.0
TC_R_1620           TC_R_1620.1         TC_R_1620.2         20.1                0.012               0.0                 0.0
TC_R_1640           TC_R_1640.1         TC_R_1640.2         20.1                0.012               0.0                 0.0
TC_R_1650           TC_R_1650.1         TC_R_1650.2         10.2                0.012               0.0                 0.0
TC_R_1660           TC_R_1660.1         TC_R_1660.2         16.1                0.012               0.0                 0.0
TC_R_1670           TC_R_1670.1         TC_R_1670.2         21.5                0.012               0.0                 0.0
TC_R_1680           TC_R_1680.1         TC_R_1680.2         6.2                 0.012               0.0                 0.0
TC_R_1690           TC_R_1690.1         TC_R_1690.2         19.6                0.012               0.0                 0.0
TC_R_1710           TC_R_1710.1         TC_R_1710.2         20.0                0.012               0.0                 0.0
TC__0180            TC__0180.1          TC__0180.2          38.5                0.012               0.0                 0.0
TC__0580            TC__0580.1          TC__0580.2          19.6                0.012               0.0                 0.0
TC_b_0200           TC_b_0200.1         TC_b_0200.2         21.4                0.012               0.0                 0.0

[LOSSES]
;;Link              Kentry              Kexit               Kavg                Flap                Seepage
;;----------------  ----------------    ----------------    ----------------    ----------------    ----------------
TC_B_0840           0.0                 0.0                 0.2                 No
TC_R_0150           0.0                 0.0                 0.2                 No

[XSECTIONS]
;;Link              XsecType            Param1              Param2              Param3              Param4              Param5              Param6
;;                  Default             Geom1               Geom2               Geom3               Geom4               Barrels             Culvert
;;                  CUSTOM              Geom1               Curve               Geom3               Geom4               Barrels
;;                  IRREGULAR           Tsect
;;                  STREET              Street
;;----------------  ----------------    ----------------    ----------------    ----------------    ----------------    ----------------    ----------------
TC_B_0250           CUSTOM              1.8                 TC_B_0250_hw        0.0                 0.0                 1
TC_B_0300           CUSTOM              0.93                TC_B_0300_hw        0.0                 0.0                 1
TC_B_0320           CUSTOM              0.645               TC_B_0320_hw        0.0                 0.0                 1
TC_B_0350           CUSTOM              1.75                TC_B_0350_hw        0.0                 0.0                 1
TC_B_0360           CUSTOM              2.38                TC_B_0360_hw        0.0                 0.0                 1
TC_B_0390           CUSTOM              1.64                TC_B_0390_hw        0.0                 0.0                 1
TC_B_0400           CUSTOM              1.13                TC_B_0400_hw        0.0                 0.0                 1
TC_B_0440           CUSTOM              2.03                TC_B_0440_hw        0.0                 0.0                 1
TC_B_0450           CUSTOM              2.32                TC_B_0450_hw        0.0                 0.0                 1
TC_B_0460           CUSTOM              2.7                 TC_B_0460_hw        0.0                 0.0                 1
TC_B_0510           CUSTOM              0.9                 TC_B_0510_hw        0.0                 0.0                 1
TC_B_0540           CUSTOM              1.06                TC_B_0540_hw        0.0                 0.0                 1
TC_B_0550           CUSTOM              1.31                TC_B_0550_hw        0.0                 0.0                 1
TC_B_0560           CUSTOM              1.1                 TC_B_0560_hw        0.0                 0.0                 1
TC_B_0590           CUSTOM              1.55                TC_B_0590_hw        0.0                 0.0                 1
TC_B_0600           CUSTOM              2.12                TC_B_0600_hw        0.0                 0.0                 1
TC_B_0610           CUSTOM              1.76                TC_B_0610_hw        0.0                 0.0                 1
TC_B_0710           CUSTOM              1.3                 TC_B_0710_hw        0.0                 0.0                 1
TC_B_0750           CUSTOM              1.615               TC_B_0750_hw        0.0                 0.0                 1
TC_B_0840           RECT_CLOSED         2.25                2.48                0.0                 0.0                 2
TC_B_0860           CUSTOM              3.2600000000000002  TC_B_0860_hw        0.0                 0.0                 1
TC_B_0920           CUSTOM              1.7                 TC_B_0920_hw        0.0                 0.0                 1
TC_B_0930           CUSTOM              0.88                TC_B_0930_hw        0.0                 0.0                 1
TC_B_0970           CUSTOM              1.94                TC_B_0970_hw        0.0                 0.0                 1
TC_B_0980           CUSTOM              1.83                TC_B_0980_hw        0.0                 0.0                 1
TC_B_0990           CUSTOM              1.46                TC_B_0990_hw        0.0                 0.0                 1
TC_B_1040           CUSTOM              4.89                TC_B_1040_hw        0.0                 0.0                 1
TC_B_1050           CUSTOM              4.7                 TC_B_1050_hw        0.0                 0.0                 1
TC_B_1080           CUSTOM              3.0300000000000002  TC_B_1080_hw        0.0                 0.0                 1