[OPTIONS]
;;Option            Value
;;----------------  ----------------
FLOW_UNITS          CMS
INFILTRATION        GREEN_AMPT
FLOW_ROUTING        DYNWAVE
LINK_OFFSETS        DEPTH
FORCE_MAIN_EQUATION H-W
IGNORE_RAINFALL     NO
IGNORE_SNOWMELT     YES
IGNORE_GROUNDWATER  YES
IGNORE_RDII         YES
IGNORE_QUALITY      YES
ALLOW_PONDING       YES
SKIP_STEADY_STATE   YES
SYS_FLOW_TOL        1
LAT_FLOW_TOL        1
START_DATE          01/01/2000
START_TIME          00:00
END_DATE            01/01/2000
END_TIME            06:00
REPORT_START_DATE   01/01/2000
REPORT_START_TIME   00:00
SWEEP_START         01/01
SWEEP_END           01/01
DRY_DAYS            0
REPORT_STEP         00:05:00
WET_STEP            00:00:30
DRY_STEP            00:30:00
ROUTING_STEP        30
LENGTHENING_STEP    1
VARIABLE_STEP       0
MINIMUM_STEP        0.001
INERTIAL_DAMPING    PARTIAL
NORMAL_FLOW_LIMITED BOTH
MIN_SURFAREA        25.0
MAX_TRIALS          20
HEAD_TOLERANCE      0.001
THREADS             8

[JUNCTIONS]
;;Name              Elev                Ymax                Y0                  Ysur                Apond
;;----------------  ----------------    ----------------    ----------------    ----------------    ----------------
TCC_C_0270.2        1.98542
TCC_C_0280.2        2.31426
TCC_C_0290.2        2.58736
TCC_C_0300.2        3.01348
TCC_C_0310.2        3.23022
TCC_C_0320.2        3.28243
TCC_C_0330.2        3.37957
TCC_C_2080.1        33.6756
TCC_C_2080.2        32.5344
TCC_C_2090.2        32.41
TCC_C_2110.1        33.67
TCC_C_2110.2        32.439
TCC_C_2130.1        35.0642
TCC_C_2130.2        34.6788
TCC_C_2140.2        34.4428
TCC_C_2150.2        34.3277
TCC_C_2160.2        34.2747
TCC_C_2170.2        33.59
TCC_C_2180.2        33.32
TCC_C_2190.2        31.48
TCC_C_2200.2        31.31
TCC_C_2210.2        30.8
TCC_C_2220.1        32.38
TCC_C_2230.2        28.6
TCC_C_2250.1        33.3613
TCC_C_2250.2        33.2267
TCC_C_2260.2        33.1821
TCC_C_2280.1        19.0999
TCC_C_2280.2        18.8549
TCC_C_2290.2        18.7163
TCC_C_2300.2        18.07
TCC_C_2310.2        17.7443
TCC_C_2320.2        17.5914
TCC_C_2330.2        17.4167
TCC_C_2340.2        17.3239
TCC_C_2360.1        12.06
TCC_C_2360.2        11.95
TCC_C_2370.2        11.5174
TCC_C_2390.1        11.892
TCC_C_2400.1        7.1478
TCC_C_2410.1        1.62033
TCC_C_2420.1        4.7
TCC_R_2450.1        5.19
TCC_R_2510.1        0.09612
TCC_R_2510.2        0.1345
TCC_R_2520.2        -0.80901
TCC_R_2530.2        -0.866761
TCC_R_2540.2        0.06
TCC_R_2550.2        0.04
TCC_R_2560.2        0.02
TCC_R_2580.1        -0.01
TCC_R_2590.1        -0.03
TCC_R_2590.2        -0.26299
TCC_R_2600.2        -1.20391
TCC_R_2620.1        0.39121
TCC_R_2620.2        0.09399
TCC_R_2630.2        -0.21
TCC_R_2640.2        -0.22
TCC_R_2650.2        -0.24
TCC_R_2660.2        -0.35703
TCC_R_2670.2        -0.48
TCC_R_2680.2        -0.61
TCC_R_2710.1        0.09227
TCC_R_2710.2        0.11
TCC_R_2720.2        0.12
TC_B_0250.1         18.52
TC_B_0300.1         16.7
TC_B_0320.1         14.7
TC_B_0350.1         10.6
TC_B_0360.1         9.25
TC_B_0390.1         16.2
TC_B_0400.1         15.35
TC_B_0440.1         10.1
TC_B_0450.1         7.1
TC_B_0460.1         6.29
TC_B_0510.1         10.6
TC_B_0540.1         12.93
TC_B_0550.1         11.33
TC_B_0560.1         10.81
TC_B_0600.1         6.29
TC_B_0610.1         6.08
TC_B_0710.1         11.5
TC_B_0750.1         11.04
TC_B_0840.1         5.71
TC_B_0860.1         3.52
TC_B_0920.1         15.5
TC_B_0930.1         13.31
TC_B_0970.1         8.94
TC_B_0970.2         8.72
TC_B_0980.2         8.6
TC_B_1040.1         2.6
TC_B_1050.1         0.73
TC_B_1080.1         -99999.0
TC_B_1090.1         -0.31
TC_B_1100.1         -0.88
TC_B_1130.1         2.47
TC_B_1140.1         2.38
TC_B_1250.1         2.24
TC_B_1260.1         1.4
TC_B_1270.1         0.98
TC_B_1390.1         0.67
TC_B_1400.1         0.49
TC_B_1420.1         0.1
TC_B_1440.1         -0.2
TC_B_1460.1         -0.41
TC_B_1470.1         -0.42
TC_B_1490.1         -1.6
TC_B_1510.1         -2.0
TC_B_1720.1         3.22
TC_C_1220.1         3.66
TC_PC_0300.1        1.33
TC_PC_0300.2        1.82
TC_PC_0320.1        1.84
TC_PC_0330.1        2.08
TC_PC_0330.2        2.12
TC_PC_0350.1        41.79
TC_PC_0350.2        40.28
TC_PC_0360.2        38.93
TC_PC_0370.2        38.05
TC_PC_0380.2        33.7
TC_PC_0560.2        20.8
TC_PC_0570.2        20.49
TC_PC_0630.2        30.13
TC_PC_0670.1        29.0
TC_PC_1100.1        11.67
TC_PC_1100.2        11.03
TC_PC_1110.2        10.79
TC_PC_1120.2        10.75
TC_PC_1130.2        10.71
TC_PC_1140.2        9.89
TC_PC_1150.2        9.7
TC_PC_1160.2        9.64
TC_PC_1170.2        8.880000000000004
TC_PC_1180.2        8.85
TC_PC_1200.1        24.13
TC_PC_1200.2        23.44
TC_PC_1210.2        23.24
TC_PC_1220.2        23.15
TC_PC_1230.2        23.05
TC_PC_1240.2        22.56
TC_PC_1250.2        22.18
TC_PC_1260.2        22.03
TC_PC_1270.2        21.64
TC_PC_1280.2        20.98
TC_PC_1290.2        20.76
TC_PC_1300.2        20.72
TC_PC_1310.2        20.56
TC_PC_1320.2        20.13
TC_PC_1330.2        19.77
TC_PC_1470.1        9.91
TC_PC_1470.2        9.89
TC_PC_1480.2        9.83
TC_PC_1490.2        9.35
TC_PC_1500.2        9.08
TC_PC_1510.2        7.81
TC_PC_1520.2        7.6
TC_PC_1530.2        7.53
TC_PC_1540.2        7.33
TC_PC_1550.2        7.3
TC_PC_1560.2        7.28
TC_PC_1570.2        7.0
TC_PC_1580.2        6.98
TC_PC_1820.1        4.63
TC_PC_1820.2        4.26
TC_PC_1830.2        4.2
TC_PC_1840.2        3.99
TC_PC_1850.2        3.4
TC_PC_1860.2        3.08
TC_PC_1870.2        2.89
TC_PC_2000.1        5.78
TC_PC_2000.2        5.62
TC_PC_2290.1        2.91
TC_PC_2290.2        2.28
TC_PC_2300.2        2.01
TC_PC_2510.2        14.73
TC_PC_2520.2        14.22
TC_PC_2530.2        14.01
TC_PC_2810.1        8.15
TC_PC_2810.2        7.2
TC_PC_3520.2        3.63
TC_PC_3530.2        3.62
TC_PC_3540.2        -99999.0
TC_PC_3550.2        3.58
TC_PC_3560.2        3.42
TC_PC_3570.2        3.36
TC_PC_3580.2        3.26
TC_PC_3590.2        3.17
TC_PC_3600.2        3.16
TC_PC_3610.2        3.15
TC_PC_3970.2        1.14
TC_PC_3980.2        0.72
TC_PR_0010.1        7.32
TC_PR_0010.2        7.27
TC_PR_0020.2        7.22
TC_PR_0030.2        6.95
TC_PR_0040.2        6.72
TC_PR_0050.2        6.38
TC_PR_0060.2        6.24
TC_PR_0070.2        6.2
TC_PR_0080.2        6.19
TC_PR_0090.2        5.79
TC_PR_0100.2        5.76
TC_PR_0110.2        5.66
TC_PR_0120.2        5.24
TC_PR_0130.2        5.22
TC_PR_0140.2        5.21
TC_PR_0160.1        26.27
TC_PR_0160.2        20.31
TC_PR_0170.2        19.22
TC_PR_0180.2        19.14
TC_PR_0190.2        18.78
TC_PR_0200.2        18.72
TC_PR_0210.2        17.8
TC_PR_0220.2        17.52
TC_PR_0230.2        14.68
TC_PR_0240.2        14.22
TC_PR_0260.1        4.45
TC_PR_0260.2        4.2
TC_PR_0270.2        3.7
TC_PR_0280.2        2.81
TC_PR_0390.2        33.01
TC_PR_0400.2        32.45
TC_PR_0410.2        32.11
TC_PR_0420.2        31.9
TC_PR_0430.2        31.72
TC_PR_0440.2        31.51
TC_PR_0450.2        31.32
TC_PR_0460.2        31.31
TC_PR_0470.2        30.76
TC_PR_0480.2        30.66
TC_PR_0490.2        30.59
TC_PR_0500.1        30.05
TC_PR_0500.2        28.81
TC_PR_0510.2        27.82
TC_PR_0520.1        25.1
TC_PR_0520.2        24.55
TC_PR_0530.2        24.14
TC_PR_0540.2        24.05
TC_PR_0550.2        22.15
TC_PR_0580.2        20.14
TC_PR_0590.2        19.7
TC_PR_0600.2        17.57
TC_PR_0610.2        16.94
TC_PR_0650.2        26.12
TC_PR_0680.1        29.82
TC_PR_0680.2        29.17
TC_PR_0690.2        27.01
TC_PR_0700.2        25.46
TC_PR_0710.2        24.81
TC_PR_0720.2        24.45
TC_PR_0730.2        23.29
TC_PR_0740.2        22.6
TC_PR_0750.2        22.5
TC_PR_0760.2        21.0
TC_PR_0770.2        19.28
TC_PR_0780.2        17.89
TC_PR_0790.2        17.56
TC_PR_0800.2        17.45
TC_PR_0810.2        17.2
TC_PR_0820.2        17.17
TC_PR_0830.2        16.01
TC_PR_0860.1        24.33
TC_PR_0860.2        24.09
TC_PR_0870.2        24.04
TC_PR_0880.2        23.99
TC_PR_0890.2        23.68
TC_PR_0900.2        23.54
TC_PR_0910.2        22.76
TC_PR_0920.2        22.56
TC_PR_0930.2        22.32
TC_PR_0940.2        22.29
TC_PR_0950.2        22.24
TC_PR_0960.2        19.11
TC_PR_0970.2        18.75
TC_PR_0980.1        23.81
TC_PR_0980.2        23.02
TC_PR_0990.2        22.97
TC_PR_1000.2        22.33
TC_PR_1010.2        22.25
TC_PR_1020.2        22.06
TC_PR_1030.2        21.87
TC_PR_1040.2        21.49
TC_PR_1050.2        20.57
TC_PR_1060.2        19.93
TC_PR_1070.2        19.0
TC_PR_1340.2        19.51
TC_PR_1350.2        18.49
TC_PR_1360.2        17.77
TC_PR_1370.2        17.52
TC_PR_1380.1        18.15
TC_PR_1380.2        18.08
TC_PR_1390.2        18.01
TC_PR_1400.2        17.95
TC_PR_1410.2        17.76
TC_PR_1420.2        17.31
TC_PR_1440.2        16.73
TC_PR_1600.1        2.42
TC_PR_1600.2        2.4
TC_PR_1610.2        2.36
TC_PR_1620.2        2.34
TC_PR_1630.2        2.22
TC_PR_1640.2        2.17
TC_PR_1650.2        2.15
TC_PR_1660.2        2.01
TC_PR_1670.2        1.96
TC_PR_1680.2        1.92
TC_PR_1690.2        1.88
TC_PR_1700.2        1.86
TC_PR_1710.2        1.8
TC_PR_1720.2        1.75
TC_PR_1730.2        1.66
TC_PR_1740.2        1.61
TC_PR_1750.2        1.55
TC_PR_1760.2        1.52
TC_PR_1770.2        1.5
TC_PR_1780.2        1.37
TC_PR_1790.2        1.29
TC_PR_1800.2        1.06
TC_PR_1890.1        3.33
TC_PR_1890.2        3.23
TC_PR_1900.2        3.14
TC_PR_1910.2        2.83
TC_PR_1920.2        2.82
TC_PR_1930.2        2.81
TC_PR_1940.2        2.72
TC_PR_1960.1        3.79
TC_PR_1960.2        3.64
TC_PR_1970.2        3.54
TC_PR_1980.2        3.52
TC_PR_2010.2        5.56
TC_PR_2020.1        5.35
TC_PR_2020.2        5.36
TC_PR_2030.2        5.31
TC_PR_2040.2        5.24
TC_PR_2050.2        5.23
TC_PR_2060.2        5.09
TC_PR_2070.2        4.91
TC_PR_2080.1        5.61
TC_PR_2080.2        5.51
TC_PR_2090.2        4.96
TC_PR_2110.2        4.37
TC_PR_2130.2        5.49
TC_PR_2140.2        5.46
TC_PR_2150.2        5.42
TC_PR_2170.1        4.64
TC_PR_2170.2        4.54
TC_PR_2180.2        4.46
TC_PR_2190.2        4.34
TC_PR_2200.2        4.31
TC_PR_2210.2        4.22
TC_PR_2220.2        4.09
TC_PR_2230.2        3.72
TC_PR_2240.2        3.23
TC_PR_2250.2        3.19
TC_PR_2260.2        2.99
TC_PR_2270.2        2.93
TC_PR_2280.1        1.75
TC_PR_2310.2        2.15
TC_PR_2320.2        2.26
TC_PR_2330.2        1.8
TC_PR_2360.1        19.01
TC_PR_2360.2        16.76
TC_PR_2370.2        15.64
TC_PR_2380.2        15.55
TC_PR_2390.2        14.86
TC_PR_2400.2        14.33
TC_PR_2410.2        14.29
TC_PR_2420.2        14.23
TC_PR_2430.2        13.91
TC_PR_2440.2        13.85
TC_PR_2450.2        13.8
TC_PR_2460.1        18.36
TC_PR_2460.2        17.81
TC_PR_2470.2        16.93
TC_PR_2480.2        16.71
TC_PR_2490.2        15.82
TC_PR_2500.2        14.85
TC_PR_2560.1        8.390000000000002
TC_PR_2560.2        8.28
TC_PR_2570.2        7.9
TC_PR_2580.2        7.26
TC_PR_2590.2        7.14
TC_PR_2600.2        7.1
TC_PR_2610.2        6.79
TC_PR_2620.1        5.71
TC_PR_2620.2        5.67
TC_PR_2660.2        6.2
TC_PR_2680.1        8.86
TC_PR_2690.1        9.42
TC_PR_2690.2        9.36
TC_PR_2700.2        8.630000000000004
TC_PR_2710.2        8.43
TC_PR_2720.2        8.32
TC_PR_2730.2        7.36
TC_PR_2740.2        7.29
TC_PR_2750.2        7.22
TC_PR_2760.1        6.41
TC_PR_2760.2        6.09
TC_PR_2770.2        5.94
TC_PR_2790.2        6.81
TC_PR_2820.2        6.93
TC_PR_2830.2        6.16
TC_PR_2840.2        5.95
TC_PR_2850.2        5.65
TC_PR_2860.2        5.15
TC_PR_2870.2        4.93
TC_PR_2880.2        4.31
TC_PR_2890.2        4.29
TC_PR_2900.2        4.190000000000002
TC_PR_2910.2        4.05
TC_PR_2930.1        5.33
TC_PR_2940.2        7.1
TC_PR_2950.2        8.17
TC_PR_2960.2        8.54
TC_PR_2970.2        8.83
TC_PR_2980.2        9.11
TC_PR_2990.2        9.38
TC_PR_3000.2        9.7
TC_PR_3010.2        9.89
TC_PR_3020.2        10.24
TC_PR_3030.2        10.53
TC_PR_3040.2        10.9
TC_PR_3050.2        11.17
TC_PR_3120.1        5.01
TC_PR_3120.2        4.92
TC_PR_3130.2        4.68
TC_PR_3140.2        4.05
TC_PR_3150.2        3.29
TC_PR_3160.2        3.26
TC_PR_3170.2        3.24
TC_PR_3180.2        2.97
TC_PR_3190.2        2.28
TC_PR_3200.2        2.16
TC_PR_3210.2        1.97
TC_PR_3220.2        1.94
TC_PR_3230.2        1.93
TC_PR_3240.1        1.74
TC_PR_3240.2        1.73
TC_PR_3250.2        1.72
TC_PR_3260.2        1.69
TC_PR_3270.2        1.51
TC_PR_3280.2        1.49
TC_PR_3290.2        1.4
TC_PR_3300.2        1.33
TC_PR_3310.2        1.28
TC_PR_3330.2        1.76
TC_PR_3350.1        2.29
TC_PR_3350.2        2.27
TC_PR_3360.2        1.72
TC_PR_3370.2        1.67
TC_PR_3380.2        1.61
TC_PR_3400.1        2.72
TC_PR_3410.1        1.91
TC_PR_3410.2        1.72
TC_PR_3420.2        1.71
TC_PR_3430.2        1.48
TC_PR_3440.2        1.47
TC_PR_3450.2        1.2
TC_PR_3460.2        1.17
TC_PR_3470.2        1.17
TC_PR_3480.2        1.15
TC_PR_3490.2        1.14
TC_PR_3500.2        1.12
TC_PR_3630.2        3.27
TC_PR_3640.2        3.24
TC_PR_3650.2        3.09
TC_PR_3660.2        2.99
TC_PR_3680.1        12.48
TC_PR_3680.2        12.37
TC_PR_3690.2        9.49
TC_PR_3700.2        9.45
TC_PR_3710.2        8.9
TC_PR_3720.2        8.41
TC_PR_3730.2        8.23
TC_PR_3740.2        8.1
TC_PR_3750.2        7.44
TC_PR_3760.2        7.33
TC_PR_3780.1        12.84
TC_PR_3780.2        12.55
TC_PR_3790.2        12.51
TC_PR_3800.1        11.72
TC_PR_3810.2        12.12
TC_PR_3860.1        4.56
TC_PR_3860.2        4.440000000000002
TC_PR_3870.2        3.71
TC_PR_3880.2        3.62
TC_PR_3890.2        3.42
TC_PR_3900.2        3.29
TC_PR_3910.2        3.2
TC_PR_3920.2        2.72
TC_PR_3930.2        2.6
TC_PR_3940.2        2.37
TC_PR_3950.2        1.91
TC_PR_3960.2        1.65
TC_PR_4060.1        24.43
TC_PR_4060.2        23.8
TC_PR_4070.2        23.48
TC_PR_4080.2        23.06
TC_PR_4090.2        22.5
TC_PR_4100.2        22.37
TC_PR_4110.2        22.19
TC_PR_4120.2        21.9
TC_PR_4130.2        21.54
TC_PR_4150.1        6.58
TC_PR_4150.2        6.51
TC_PR_4160.2        6.24
TC_R_0020.1         29.74
TC_R_0030.1         33.88
TC_R_0060.1         30.56
TC_R_0080.1         28.35
TC_R_0110.1         23.23
TC_R_0120.1         21.09
TC_R_0150.1         17.02
TC_R_0190.1         12.94
TC_R_0260.1         17.0
TC_R_0270.1         13.45
TC_R_0310.1         15.45
TC_R_0330.1         13.06
TC_R_0380.1         18.4
TC_R_0420.1         13.21
TC_R_0430.1         11.24
TC_R_0500.1         12.14
TC_R_0520.1         9.65
TC_R_0520.2         7.69
TC_R_0530.1         -99999.0
TC_R_0570.1         9.87
TC_R_0630.1         5.52
TC_R_0690.1         14.41
TC_R_0700.1         12.06
TC_R_0740.1         12.69
TC_R_0780.1         10.47
TC_R_0790.1         9.16
TC_R_0800.1         8.87
TC_R_0890.1         21.03
TC_R_0900.1         20.1
TC_R_0910.1         19.29
TC_R_0940.1         -99999.0
TC_R_0950.1         12.2
TC_R_0960.1         10.82
TC_R_1000.1         10.35
TC_R_1010.1         5.84
TC_R_1010.2         5.4
TC_R_1070.1         1.54
TC_R_1110.1         4.78
TC_R_1210.1         -99999.0
TC_R_1300.1         5.64
TC_R_1320.1         4.58
TC_R_1330.1         3.59
TC_R_1330.2         -99999.0
TC_R_1340.1         -99999.0
TC_R_1350.1         2.56
TC_R_1520.1         -0.22
TC_R_1550.1         11.53
TC_R_1560.1         7.96
TC_R_1570.1         6.61
TC_R_1580.1         5.24
TC_R_1600.1         3.91
TC_R_1610.1         3.8
TC_R_1620.1         3.77
TC_R_1640.1         9.14
TC_R_1650.1         8.72
TC_R_1660.1         7.71
TC_R_1670.1         7.04
TC_R_1680.1         6.36
TC_R_1690.1         5.93
TC_R_1710.1         4.93
TC__0180.1          14.92
TC__0580.1          8.9
TC_b_0200.1         12.49

[OUTFALLS]
;;Name              Elev                Type                Param1              Gated               RouteTo
;;                                      FREE                                    Gated               RouteTo
;;                                      NORMAL                                  Gated               RouteTo
;;                                      FIXED               Stage               Gated               RouteTo
;;                                      TIDAL               Tcurve              Gated               RouteTo
;;                                      TIMESERIES          Tseries             Gated               RouteTo
;;----------------  ----------------    ----------------    ----------------    ----------------    ----------------
TCC_C_0340.2        4.3                 FIXED               4.3
TCC_C_2100.2        30.335              FIXED               30.335
TCC_C_2240.2        28.439              FIXED               28.439
TCC_C_2420.2        3.93207             FIXED               3.93207
TCC_R_2610.2        -1.0119             FIXED               -1.0119
TCC_R_2690.2        -0.46698            FIXED               -0.46698
TC_B_0250.2         18.51               FIXED               18.51
TC_B_0300.2         16.7                FIXED               16.7
TC_B_0320.2         14.7                FIXED               14.7
TC_B_0350.2         10.6                FIXED               10.6
TC_B_0360.2         9.25                FIXED               9.25
TC_B_0390.2         16.04               FIXED               16.04
TC_B_0400.2         15.16               FIXED               15.16
TC_B_0440.2         10.1                FIXED               10.1
TC_B_0450.2         7.1                 FIXED               7.1
TC_B_0460.2         6.25                FIXED               6.25
TC_B_0510.2         10.6                FIXED               10.6
TC_B_0540.2         12.89               FIXED               12.89
TC_B_0550.2         11.25               FIXED               11.25
TC_B_0560.2         10.81               FIXED               10.81
TC_B_0590.2         7.69                FIXED               7.69
TC_B_0600.2         6.27                FIXED               6.27
TC_B_0610.2         5.96                FIXED               5.96
TC_B_0710.2         11.46               FIXED               11.46
TC_B_0750.2         10.85               FIXED               10.85
TC_B_0840.2         5.63                FIXED               5.63
TC_B_0860.2         3.5                 FIXED               3.5
TC_B_0920.2         15.5                FIXED               15.5
TC_B_0930.2         13.29               FIXED               13.29
TC_B_0990.2         8.6                 FIXED               8.6
TC_B_1040.2         2.08                FIXED               2.08
TC_B_1050.2         0.65                FIXED               0.65
TC_B_1080.2         -99999.0            FIXED               -99999.0
TC_B_1090.2         -0.33               FIXED               -0.33
TC_B_1100.2         -0.9                FIXED               -0.9
TC_B_1130.2         2.46                FIXED               2.46
TC_B_1140.2         2.32                FIXED               2.32
TC_B_1260.2         1.34                FIXED               1.34
TC_B_1270.2         0.84                FIXED               0.84
TC_B_1390.2         0.61                FIXED               0.61
TC_B_1400.2         0.47                FIXED               0.47
TC_B_1420.2         0.06                FIXED               0.06
TC_B_1440.2         -0.2                FIXED               -0.2
TC_B_1460.2         -0.42               FIXED               -0.42
TC_B_1470.2         -0.43               FIXED               -0.43
TC_B_1490.2         -1.4                FIXED               -1.4
TC_B_1510.2         -2.0                FIXED               -2.0
TC_B_1720.2         3.11                FIXED               3.11
TC_C_1220.2         3.53                FIXED               3.53
TC_PC_0340.2        2.65                FIXED               2.65
TC_PC_1190.2        7.84                FIXED               7.84
TC_PC_1590.2        6.81                FIXED               6.81
TC_PR_0620.2        16.01               FIXED               16.01
TC_PR_0840.2        15.72               FIXED               15.72
TC_PR_1090.2        18.71               FIXED               18.71
TC_PR_1950.2        2.65                FIXED               2.65
TC_PR_1990.2        3.28                FIXED               3.28
TC_PR_2780.2        5.39                FIXED               5.39
TC_PR_2930.2        4.74                FIXED               4.74
TC_PR_3060.2        11.52               FIXED               11.52
TC_PR_3320.2        1.04                FIXED               1.04
TC_PR_3770.2        6.74                FIXED               6.74
TC_PR_4140.2        21.52               FIXED               21.52
TC_PR_4170.2        6.05                FIXED               6.05
TC_R_0020.2         29.5                FIXED               29.5
TC_R_0030.2         33.76               FIXED               33.76
TC_R_0060.2         30.54               FIXED               30.54
TC_R_0080.2         28.33               FIXED               28.33
TC_R_0110.2         22.26               FIXED               22.26
TC_R_0120.2         20.95               FIXED               20.95
TC_R_0150.2         16.89               FIXED               16.89
TC_R_0190.2         12.9                FIXED               12.9
TC_R_0260.2         16.9                FIXED               16.9
TC_R_0270.2         12.55               FIXED               12.55
TC_R_0310.2         15.45               FIXED               15.45
TC_R_0330.2         12.96               FIXED               12.96
TC_R_0380.2         17.29               FIXED               17.29
TC_R_0420.2         13.01               FIXED               13.01
TC_R_0430.2         11.07               FIXED               11.07
TC_R_0500.2         11.68               FIXED               11.68
TC_R_0530.2         13.15               FIXED               13.15
TC_R_0570.2         9.7                 FIXED               9.7
TC_R_0630.2         5.43                FIXED               5.43
TC_R_0690.2         14.13               FIXED               14.13
TC_R_0700.2         11.84               FIXED               11.84
TC_R_0740.2         12.44               FIXED               12.44
TC_R_0780.2         10.45               FIXED               10.45
TC_R_0790.2         9.12                FIXED               9.12
TC_R_0800.2         8.82                FIXED               8.82
TC_R_0890.2         20.56               FIXED               20.56
TC_R_0900.2         19.9                FIXED               19.9
TC_R_0910.2         18.53               FIXED               18.53
TC_R_0940.2         13.63               FIXED               13.63
TC_R_0950.2         11.92               FIXED               11.92
TC_R_0960.2         10.6                FIXED               10.6
TC_R_1000.2         10.3                FIXED               10.3
TC_R_1020.2         5.22                FIXED               5.22
TC_R_1070.2         1.51                FIXED               1.51
TC_R_1110.2         4.2                 FIXED               4.2
TC_R_1210.2         3.84                FIXED               3.84
TC_R_1300.2         5.61                FIXED               5.61
TC_R_1320.2         4.39                FIXED               4.39
TC_R_1340.2         2.68                FIXED               2.68
TC_R_1350.2         2.55                FIXED               2.55
TC_R_1520.2         -0.26               FIXED               -0.26
TC_R_1550.2         10.87               FIXED               10.87
TC_R_1560.2         7.73                FIXED               7.73
TC_R_1570.2         6.44                FIXED               6.44
TC_R_1580.2         5.11                FIXED               5.11
TC_R_1600.2         3.9                 FIXED               3.9
TC_R_1610.2         3.79                FIXED               3.79
TC_R_1620.2         3.75                FIXED               3.75
TC_R_1640.2         9.04                FIXED               9.04
TC_R_1650.2         8.65                FIXED               8.65
TC_R_1660.2         7.6                 FIXED               7.6
TC_R_1670.2         6.75                FIXED               6.75
TC_R_1680.2         6.32                FIXED               6.32
TC_R_1690.2         5.8                 FIXED               5.8
TC_R_1710.2         4.79                FIXED               4.79
TC__0180.2          14.71               FIXED               14.71
TC__0580.2          8.8                 FIXED               8.8
TC_b_0200.2         12.49               FIXED               12.49

[CONDUITS]
;;Name              From Node           To Node             Length              Roughness           InOffset            OutOffset           InitFlow            MaxFlow
;;----------------  ----------------    ----------------    ----------------    ----------------    ----------------    ----------------    ----------------    ----------------
TCC_C_0270          TC_PR_2280.1        TCC_C_0270.2        5.45954934652343    0.012               0.0                 0.0
TCC_C_0280          TCC_C_0270.2        TCC_C_0280.2        26.45989191354803   0.012               0.0                 0.0
TCC_C_0290          TCC_C_0280.2        TCC_C_0290.2        46.64104347275804   0.012               0.0                 0.0
TCC_C_0300          TCC_C_0290.2        TCC_C_0300.2        89.83365131653963   0.012               0.0                 0.0
TCC_C_0310          TCC_C_0300.2        TCC_C_0310.2        46.28708478877949   0.012               0.0                 0.0
TCC_C_0320          TCC_C_0310.2        TCC_C_0320.2        30.141477861616497  0.012               0.0                 0.0
TCC_C_0330          TCC_C_0320.2        TCC_C_0330.2        30.72151154619841   0.012               0.0                 0.0
TCC_C_0340          TCC_C_0330.2        TCC_C_0340.2        133.4645897077692   0.012               0.0                 0.0
TCC_C_2080          TCC_C_2080.1        TCC_C_2080.2        90.8562385604406    0.012               0.0                 0.0
TCC_C_2090          TCC_C_2080.2        TCC_C_2090.2        9.534446228898142   0.012               0.0                 0.0
TCC_C_2100          TCC_C_2090.2        TCC_C_2100.2        159.81283965910387  0.012               0.0                 0.00999999999999801
TCC_C_2110          TCC_C_2110.1        TCC_C_2110.2        100.74114967185953  0.012               0.0                 0.0
TCC_C_2120          TCC_C_2110.2        TCC_C_2100.2        160.84815163273396  0.012               0.0                 0.0
TCC_C_2130          TCC_C_2130.1        TCC_C_2130.2        14.952722061287385  0.012               0.0                 0.0
TCC_C_2140          TCC_C_2130.2        TCC_C_2140.2        47.98312082757833   0.012               0.0                 0.0
TCC_C_2150          TCC_C_2140.2        TCC_C_2150.2        29.45006964035016   0.012               0.0                 0.0
TCC_C_2160          TCC_C_2150.2        TCC_C_2160.2        12.859912344825812  0.012               0.0                 0.0
TCC_C_2170          TCC_C_2160.2        TCC_C_2170.2        28.521100784707276  0.012               0.0                 0.0
TCC_C_2180          TCC_C_2170.2        TCC_C_2180.2        11.146842121147545  0.012               0.0                 0.0
TCC_C_2190          TCC_C_2180.2        TCC_C_2190.2        76.89286462847133   0.012               0.0                 0.0
TCC_C_2200          TCC_C_2190.2        TCC_C_2200.2        7.137930417727334   0.012               0.0                 0.0
TCC_C_2210          TCC_C_2200.2        TCC_C_2210.2        21.00606868255163   0.012               0.0                 0.0
TCC_C_2220          TCC_C_2220.1        TCC_C_2200.2        43.998926354856394  0.012               0.0                 0.0
TCC_C_2230          TCC_C_2210.2        TCC_C_2230.2        91.89529326672357   0.012               0.0                 0.0
TCC_C_2240          TCC_C_2230.2        TCC_C_2240.2        6.748603383445854   0.012               0.0                 0.0
TCC_C_2250          TCC_C_2250.1        TCC_C_2250.2        9.614472636613929   0.012               0.0                 0.0
TCC_C_2260          TCC_C_2250.2        TCC_C_2260.2        9.3340498179601     0.012               0.0                 0.0
TCC_C_2270          TCC_C_2260.2        TC_PR_0400.2        40.25566225878767   0.012               0.0                 0.3499999999999943
TCC_C_2280          TCC_C_2280.1        TCC_C_2280.2        29.61731242993496   0.012               0.0                 0.0
TCC_C_2290          TCC_C_2280.2        TCC_C_2290.2        34.42997156049695   0.012               0.0                 0.0
TCC_C_2300          TCC_C_2290.2        TCC_C_2300.2        59.46426980056744   0.012               0.0                 0.0
TCC_C_2310          TCC_C_2300.2        TCC_C_2310.2        29.34294032606241   0.012               0.0                 0.0
TCC_C_2320          TCC_C_2310.2        TCC_C_2320.2        31.563770934305488  0.012               0.0                 0.0
TCC_C_2330          TCC_C_2320.2        TCC_C_2330.2        19.921837665323014  0.012               0.0                 0.0
TCC_C_2340          TCC_C_2330.2        TCC_C_2340.2        20.267753848908217  0.012               0.0                 0.0
TCC_C_2350          TCC_C_2340.2        TC_PR_0620.2        51.79880158632257   0.012               0.0                 0.639999999999997
TCC_C_2360          TCC_C_2360.1        TCC_C_2360.2        31.867517522431513  0.012               0.0                 0.0
TCC_C_2370          TCC_C_2360.2        TCC_C_2370.2        26.57145048126504   0.012               0.0                 0.0
TCC_C_2380          TCC_C_2370.2        TC_PC_1140.2        42.59671902430317   0.012               0.0                 0.16000000000000014
TCC_C_2390          TCC_C_2390.1        TC_B_0350.1         137.1799600330826   0.012               0.0                 0.6476000000000006