[TITLE]
;;Title
;;------------------------------------------
A site surface drainage model.
See Site_Drainage_Model.txt for more details.

[OPTIONS]
;;Option            Value
;;----------------  ----------------
FLOW_UNITS          CFS
INFILTRATION        HORTON
FLOW_ROUTING        DYNWAVE
LINK_OFFSETS        DEPTH
MIN_SLOPE           0
ALLOW_PONDING       NO
SKIP_STEADY_STATE   NO
START_DATE          01/01/1998
START_TIME          00:00:00
REPORT_START_DATE   01/01/1998
REPORT_START_TIME   00:00:00
END_DATE            01/01/1998
END_TIME            06:00:00
SWEEP_START         01/01
SWEEP_END           12/31
DRY_DAYS            5
REPORT_STEP         00:01:00
WET_STEP            00:01:00
DRY_STEP            01:00:00
ROUTING_STEP        0:00:15
RULE_STEP           00:00:00
INERTIAL_DAMPING    PARTIAL
NORMAL_FLOW_LIMITED SLOPE
FORCE_MAIN_EQUATION H-W
VARIABLE_STEP       0.75
LENGTHENING_STEP    0
MIN_SURFAREA        12.566
MAX_TRIALS          8
HEAD_TOLERANCE      0.005
SYS_FLOW_TOL        5
LAT_FLOW_TOL        5
MINIMUM_STEP        0.5
THREADS             1

[EVAPORATION]
;;Format            Param1              Param2              Param3              Param4              Param5              Param6              Param7              Param8              Param9              Param10             Param11             Param12
;;CONSTANT          evap
;;MONTHLY           e1                  e2                  e3                  e4                  e5                  e6                  e7                  e8                  e9                  e10                 e11                 e12
;;TIMESERIES        Tseries
;;TEMPERATURE
;;FILE              p1                  p2                  p3                  p4                  p5                  p6                  p7                  p8                  p9                  p10                 p11                 p12
;;RECOVERY          patternId
;;DRY_ONLY          DryYesNo
;;----------------  ----------------    ----------------    ----------------    ----------------    ----------------    ----------------    ----------------    ----------------    ----------------    ----------------    ----------------    ----------------
CONSTANT            0.0
DRY_ONLY            NO

[RAINGAGES]
;;Name              Form                Intvl               SnowCatchDeficiency Format              Param1              Param2              Param3
;;                                                                              TIMESERIES          Tseries
;;                                                                              FILE                Fname               Sta                 Units
;;----------------  ----------------    ----------------    ----------------    ----------------    ----------------    ----------------    ----------------
;rain gage description
RainGage            INTENSITY           0:05                1.0                 TIMESERIES          2-yr

[SUBCATCHMENTS]
;;Name              Rain Gage           Outlet              Area                PctImperv           Width               PctSlope            CurbLen             SnowPack
;;----------------  ----------------    ----------------    ----------------    ----------------    ----------------    ----------------    ----------------    ----------------
;test descript s1
S1                  RainGage            J1                  4.55                56.8                1587.0              2.0                 1680.0
S2                  RainGage            J2                  4.74                63.0                1653.0              2.0                 1680.0
S3                  RainGage            J3                  3.74                39.5                1456.0              3.1                 930.0
S4                  RainGage            J7                  6.79                49.9                2331.0              3.1                 2250.0
S5                  RainGage            J10                 4.79                87.7                1670.0              2.0                 2480.0
S6                  RainGage            J11                 1.98                95.0                690.0               2.0                 1100.0
S7                  RainGage            J10                 2.33                0.0                 907.0               3.1                 565.0

[SUBAREAS]
;;Subcatchment      Nimp                Nperv               Simp                Sperv               PctZero             RouteTo             PctRouted
;;----------------  ----------------    ----------------    ----------------    ----------------    ----------------    ----------------    ----------------
;test descript s1
S1                  0.015               0.24                0.06                0.3                 25.0                OUTLET
S2                  0.015               0.24                0.06                0.3                 25.0                OUTLET
S3                  0.015               0.24                0.06                0.3                 25.0                OUTLET
S4                  0.015               0.24                0.06                0.3                 25.0                OUTLET
S5                  0.015               0.24                0.06                0.3                 25.0                OUTLET
S6                  0.015               0.24                0.06                0.3                 25.0                OUTLET
S7                  0.015               0.24                0.06                0.3                 25.0                OUTLET

[INFILTRATION]
;;Subcatchment      p1                  p2                  p3                  p4                  p5                  Method
;;----------------  ----------------    ----------------    ----------------    ----------------    ----------------    ----------------
;test descript s1
S1                  4.5                 0.2                 6.5                 7.0                 0.0
S2                  4.5                 0.2                 6.5                 7.0                 0.0
S3                  4.5                 0.2                 6.5                 7.0                 0.0
S4                  4.5                 0.2                 6.5                 7.0                 0.0
S5                  4.5                 0.2                 6.5                 7.0                 0.0
S6                  4.5                 0.2                 6.5                 7.0                 0.0
S7                  4.5                 0.2                 6.5                 7.0                 0.0

[POLLUTANTS]
;;Name              Units               Crain               Cgw                 cii                 Kdecay              Sflag               CoPoll              CoFract             Cdwf                Cinit
;;----------------  ----------------    ----------------    ----------------    ----------------    ----------------    ----------------    ----------------    ----------------    ----------------    ----------------
TSS                 MG/L                0.0                 0.0                 0.0                 0.0                 NO                  *                   0.0                 0.0                 0.0

[LANDUSES]
;;Name              SweepIntervalDays   AvailabilityFract   LastSweepDays
;;----------------  ----------------    ----------------    ----------------
Commercial          0.0                 0.0                 0.0
;landuse_description
Residential_1       0.0                 0.0                 0.0
Residential_2       0.0                 0.0                 0.0
Undeveloped         0.0                 0.0                 0.0

[COVERAGES]
;;Subcatchment      Landuse             Percent
;;----------------  ----------------    ----------------
S1                  Residential_1       100.0
S2                  Residential_1       27.0
S2                  Residential_2       73.0
S3                  Residential_1       27.0
S3                  Residential_2       32.0
S4                  Residential_1       9.0
S4                  Residential_2       30.0
S4                  Commercial          26.0
S5                  Commercial          98.0
S6                  Commercial          100.0

[BUILDUP]
;;Landuse           Pollutant           FuncType            C1                  C2                  C3                  PerUnit
;;----------------  ----------------    ----------------    ----------------    ----------------    ----------------    ----------------
Commercial          TSS                 EXP                 0.15                0.2                 0.0                 CURB
Residential_1       TSS                 EXP                 0.11                0.5                 0.0                 CURB
Residential_2       TSS                 EXP                 0.13                0.5                 0.0                 CURB
Undeveloped         TSS                 NONE                0.0                 0.0                 0.0                 AREA

[WASHOFF]
;;Landuse           Pollutant           FuncType            C1                  C2                  SweepRmv1           BmpRmv1
;;----------------  ----------------    ----------------    ----------------    ----------------    ----------------    ----------------
Commercial          TSS                 EXP                 4.0                 2.2                 0.0                 0.0
Residential_1       TSS                 EXP                 2.0                 1.8                 0.0                 0.0
Residential_2       TSS                 EXP                 4.0                 2.2                 0.0                 0.0
Undeveloped         TSS                 RC                  500.0               2.0                 0.0                 0.0

[JUNCTIONS]
;;Name              Elev                Ymax                Y0                  Ysur                Apond
;;----------------  ----------------    ----------------    ----------------    ----------------    ----------------
;j1 description
J1                  4973.0              0.0                 0.0                 0                   0.0
J10                 4963.8              0.0                 0.0                 0                   0.0
J11                 4963.0              0.0                 0.0                 0                   0.0
;j2 description
J2                  4969.0              0.0                 0.0                 0                   0.0
J3                  4973.0              0.0                 0.0                 0                   0.0
J4                  4971.0              0.0                 0.0                 0                   0.0
J5                  4969.8              0.0                 0.0                 0                   0.0
J6                  4969.0              0.0                 0.0                 0                   0.0
;j7 description
J7                  4971.5              0.0                 0.0                 0                   0.0
J8                  4966.5              0.0                 0.0                 0                   0.0
J9                  4964.8              0.0                 0.0                 0                   0.0

[OUTFALLS]
;;Name              Elev                Type                Param1              Gated               RouteTo
;;                                      FREE                                    Gated               RouteTo
;;                                      NORMAL                                  Gated               RouteTo
;;                                      FIXED               Stage               Gated               RouteTo
;;                                      TIDAL               Tcurve              Gated               RouteTo
;;                                      TIMESERIES          Tseries             Gated               RouteTo
;;----------------  ----------------    ----------------    ----------------    ----------------    ----------------
;description outfall1
O1                  4962.0              FREE

[DIVIDERS]
;;Name              Elev                DivLink             Type                Param1              Param2              Param3              Ymax                Y0                  Ysur                Apond
;;                                                          OVERFLOW                                                                        Ymax                Y0                  Ysur                Apond
;;                                                          CUTOFF              Qmin                                                        Ymax                Y0                  Ysur                Apond
;;                                                          TABULAR             Dcurve                                                      Ymax                Y0                  Ysur                Apond
;;                                                          WEIR                Qmin                Ht                  Cd                  Ymax                Y0                  Ysur                Apond
;;----------------  ----------------    ----------------    ----------------    ----------------    ----------------    ----------------    ----------------    ----------------    ----------------    ----------------
;divder 1 description
1                   0.0                 *                   CUTOFF              0.0                                                         0.0                 0.0                 0.0                 0.0

[STORAGE]
;;Name              Elev                Ymax                Y0                  TYPE                Param1              Param2              Param3              Ysur                Fevap               Psi                 Ksat                IMD
;;                                                                              TABULAR             Acurve                                                      Ysur                Fevap               Psi                 Ksat                IMD
;;                                                                              FUNCTIONAL          A1                  A2                  A0                  Ysur                Fevap               Psi                 Ksat                IMD
;;                                                                              Default             L                   W                   Z                   Ysur                Fevap               Psi                 Ksat                IMD
;;----------------  ----------------    ----------------    ----------------    ----------------    ----------------    ----------------    ----------------    ----------------    ----------------    ----------------    ----------------    ----------------
;storage description
2                   0.0                 0.0                 0.0                 FUNCTIONAL          0.0                 0.0                 10000.0             0.0                 0.0

[CONDUITS]
;;Name              From Node           To Node             Length              Roughness           InOffset            OutOffset           InitFlow            MaxFlow
;;----------------  ----------------    ----------------    ----------------    ----------------    ----------------    ----------------    ----------------    ----------------
;description c1
C1                  J1                  J5                  185.0               0.05                0.0                 0.0                 0.0                 0.0
C10                 J10                 J11                 145.0               0.05                0.0                 0.0                 0.0                 0.0
C11                 J11                 O1                  89.0                0.016               0.0                 0.0                 0.0                 0.0
C2                  J2                  J11                 526.0               0.016               0.0                 4.0                 0.0                 0.0
C3                  J3                  J4                  109.0               0.016               0.0                 0.0                 0.0                 0.0
C4                  J4                  J5                  133.0               0.05                0.0                 0.0                 0.0                 0.0
C5                  J5                  J6                  207.0               0.05                0.0                 0.0                 0.0                 0.0
C6                  J7                  J6                  140.0               0.05                0.0                 0.0                 0.0                 0.0
C7                  J6                  J8                  95.0                0.016               0.0                 0.0                 0.0                 0.0
C8                  J8                  J9                  166.0               0.05                0.0                 0.0                 0.0                 0.0
C9                  J9                  J10                 320.0               0.05                0.0                 0.0                 0.0                 0.0

[PUMPS]
;;Name              From Node           To Node             Pcurve              Status              Startup             Shutoff
;;----------------  ----------------    ----------------    ----------------    ----------------    ----------------    ----------------
;p1 description
1                   J10                 2                   *                   ON                  0.0                 0.0

[WEIRS]
;;Name              From Node           To Node             Type                CrestHt             Cd                  Gated               EC                  Cd2                 Sur                 Road_Width          Road_Surf
;;----------------  ----------------    ----------------    ----------------    ----------------    ----------------    ----------------    ----------------    ----------------    ----------------    ----------------    ----------------
;weir3 description
3                   J3                  J1                  TRANSVERSE          0.0                 3.33                NO                  0                   0.0                 YES

[ORIFICES]
;;Name              From Node           To Node             Type                Offset              Qcoeff              Gated               CloseTime
;;----------------  ----------------    ----------------    ----------------    ----------------    ----------------    ----------------    ----------------
;orifice 2 description
2                   J5                  J7                  SIDE                0.0                 0.65                NO                  0.0

[OUTLETS]
;;Name              From Node           To Node             Offset              Type                Param1              Param2              Gated
;;                                                                              TABULAR/DEPTH       QCurve                                  Gated
;;                                                                              TABULAR/HEAD        QCurve                                  Gated
;;                                                                              FUNCTIONAL/DEPTH    C1                  C2                  Gated
;;                                                                              FUNCTIONAL/HEAD     C1                  C2                  Gated
;;----------------  ----------------    ----------------    ----------------    ----------------    ----------------    ----------------    ----------------
;outlet 4 description
4                   J3                  J5                  0.0                 FUNCTIONAL/DEPTH    10.0                0.5                 NO
5                   J5                  J7                  0.0                 TABULAR/DEPTH       DummyCurve                              YES

[LOSSES]
;;Link              Kentry              Kexit               Kavg                Flap                Seepage
;;----------------  ----------------    ----------------    ----------------    ----------------    ----------------

[XSECTIONS]
;;Link              XsecType            Param1              Param2              Param3              Param4              Param5              Param6
;;                  Default             Geom1               Geom2               Geom3               Geom4               Barrels             Culvert
;;                  CUSTOM              Geom1               Curve               Geom3               Geom4               Barrels
;;                  IRREGULAR           Tsect
;;                  STREET              Street
;;----------------  ----------------    ----------------    ----------------    ----------------    ----------------    ----------------    ----------------
2                   CIRCULAR            1.0                 0.0                 0.0                 0.0
3                   RECT_OPEN           1.0                 1.0                 0.0                 0.0
C1                  TRAPEZOIDAL         3.0                 5.0                 5.0                 5.0                 1
C10                 TRAPEZOIDAL         3.0                 5.0                 5.0                 5.0                 1
C11                 CIRCULAR            4.75                0.0                 0.0                 0.0                 1
C2                  TRAPEZOIDAL         1.0                 0.0                 0.0001              25.0                1
C3                  CIRCULAR            2.25                0.0                 0.0                 0.0                 1
C4                  TRAPEZOIDAL         3.0                 5.0                 5.0                 5.0                 1
C5                  TRAPEZOIDAL         3.0                 5.0                 5.0                 5.0                 1
C6                  TRAPEZOIDAL         3.0                 5.0                 5.0                 5.0                 1
C7                  CIRCULAR            3.5                 0.0                 0.0                 0.0                 1
C8                  TRAPEZOIDAL         3.0                 5.0                 5.0                 5.0                 1
C9                  TRAPEZOIDAL         3.0                 5.0                 5.0                 5.0                 1

[TIMESERIES]
;;Name              Date                Time                Value
;;----------------  ----------------    ----------------    ----------------
;time-series description
2-yr                                    0:00                0.29
2-yr                                    0:05                0.33
2-yr                                    0:10                0.38
2-yr                                    0:15                0.64
2-yr                                    0:20                0.81
2-yr                                    0:25                1.57
2-yr                                    0:30                2.85
2-yr                                    0:35                1.18
2-yr                                    0:40                0.71
2-yr                                    0:45                0.42
2-yr                                    0:50                0.35
2-yr                                    0:55                0.3
2-yr                                    1:00                0.2
2-yr                                    1:05                0.19
2-yr                                    1:10                0.18
2-yr                                    1:15                0.17
2-yr                                    1:20                0.17
2-yr                                    1:25                0.16
2-yr                                    1:30                0.15
2-yr                                    1:35                0.15
2-yr                                    1:40                0.14
2-yr                                    1:45                0.14
2-yr                                    1:50                0.13
2-yr                                    1:55                0.13
;testing this description for 10-year time-series
10-yr                                   0:00                0.49
10-yr                                   0:05                0.56
10-yr                                   0:10                0.65
10-yr                                   0:15                1.09
10-yr                                   0:20                1.39
10-yr                                   0:25                2.69
10-yr                                   0:30                4.87
10-yr                                   0:35                2.02
10-yr                                   0:40                1.21
10-yr                                   0:45                0.71
10-yr                                   0:50                0.6
10-yr                                   0:55                0.52
10-yr                                   1:00                0.39
10-yr                                   1:05                0.37
10-yr                                   1:10                0.35
10-yr                                   1:15                0.34
10-yr                                   1:20                0.32
10-yr                                   1:25                0.31
10-yr                                   1:30                0.3
10-yr                                   1:35                0.29
10-yr                                   1:40                0.28
10-yr                                   1:45                0.27
10-yr                                   1:50                0.26
10-yr                                   1:55                0.25
100-yr                                  0:00                1.0
100-yr                                  0:05                1.14
100-yr                                  0:10                1.33
100-yr                                  0:15                2.23
100-yr                                  0:20                2.84
100-yr                                  0:25                5.49
100-yr                                  0:30                9.95
100-yr                                  0:35                4.12
100-yr                                  0:40                2.48
100-yr                                  0:45                1.46
100-yr                                  0:50                1.22
100-yr                                  0:55                1.06
100-yr                                  1:00                1.0
100-yr                                  1:05                0.95
100-yr                                  1:10                0.91
100-yr                                  1:15                0.87
100-yr                                  1:20                0.84
100-yr                                  1:25                0.81
100-yr                                  1:30                0.78
100-yr                                  1:35                0.75
100-yr                                  1:40                0.73
100-yr                                  1:45                0.71
100-yr                                  1:50                0.69
100-yr                                  1:55                0.67

[CURVES]
;;Name              Type                xval                yval
;;----------------  ----------------    ----------------    ----------------
;Shape1 Description
shape1              Shape               0.0                 0.2
shape1                                  1.0                 1.0

[PATTERNS]
;;Name              Interval            Factor1             Factor2             Factor3             Factor4             Factor5             Factor6             Factor7             Factor8             Factor9             Factor10            Factor11            Factor12            Factor13            Factor14            Factor15            Factor16            Factor17            Factor18            Factor19            Factor20            Factor21            Factor22            Factor23            Factor24
;;----------------  ----------------    ----------------    ----------------    ----------------    ----------------    ----------------    ----------------    ----------------    ----------------    ----------------    ----------------    ----------------    ----------------    ----------------    ----------------    ----------------    ----------------    ----------------    ----------------    ----------------    ----------------    ----------------    ----------------    ----------------    ----------------
;time pattern description
tt                  MONTHLY             1.0                 1.0                 1.0                 1.0                 1.0                 1.0                 1.0                 1.0                 1.0                 1.0                 1.0                 1.0

[REPORT]
;;Format            Value
;;----------------  ----------------
LINKS               ALL
NODES               ALL
SUBCATCHMENTS       ALL

[MAP]
;;Option            Value
;;----------------  ----------------
DIMENSIONS          -255.206 -70.199 1490.833 1514.231
Units               Feet

[SYMBOLS]
;;Gage              X-Coord             Y-Coord
;;----------------  ----------------    ----------------
RainGage            -175.841            1212.778

[LABELS]
;;X-Coord           Y-Coord             Label
;;----------------  ----------------    ----------------
1094.291            753.59              "S7" "" "Arial" 14 0 0
1375.584            437.852             "Outfall" "" "Arial" 10 1 0
218.836             1149.697            "S1" "" "Arial" 14 0 0
236.058             742.108             "S3" "" "Arial" 14 0 0
663.739             446.463             "S4" "" "Arial" 14 0 0
721.146             997.569             "S2" "" "Arial" 14 0 0