[OPTIONS]
;;Option            Value
;;----------------  ----------------
FLOW_UNITS          CMS
INFILTRATION        GREEN_AMPT
FLOW_ROUTING        DYNWAVE
LINK_OFFSETS        DEPTH
FORCE_MAIN_EQUATION H-W
IGNORE_RAINFALL     NO
IGNORE_SNOWMELT     YES
IGNORE_GROUNDWATER  YES
IGNORE_RDII         YES
IGNORE_QUALITY      YES
ALLOW_PONDING       YES
SKIP_STEADY_STATE   YES
SYS_FLOW_TOL        1
LAT_FLOW_TOL        1
START_DATE          01/01/2000
START_TIME          00:00
END_DATE            01/01/2000
END_TIME            06:00
REPORT_START_DATE   01/01/2000
REPORT_START_TIME   00:00
SWEEP_START         01/01
SWEEP_END           01/01
DRY_DAYS            0
REPORT_STEP         00:05:00
WET_STEP            00:00:30
DRY_STEP            00:30:00
ROUTING_STEP        30
LENGTHENING_STEP    1
VARIABLE_STEP       0
MINIMUM_STEP        0.001
INERTIAL_DAMPING    PARTIAL
NORMAL_FLOW_LIMITED BOTH
MIN_SURFAREA        25.0
MAX_TRIALS          20
HEAD_TOLERANCE      0.001
THREADS             8

[STREETS]
;;Name              Tcrown              Hcurb               Sx                  nRoad               a                   W                   Sides               Tback               Sback               nBack
;;----------------  ----------------    ----------------    ----------------    ----------------    ----------------    ----------------    ----------------    ----------------    ----------------    ----------------
DummyStreet         10.0                0.2                 4.0                 0.016               0.0                 0.0                 1                   5.0                 8.0                 0.016

[CURVES]
;;Name              Type                xval                yval
;;----------------  ----------------    ----------------    ----------------
OA                  RATING              0.0                 0.0
OA                                      0.05                0.036102064
OA                                      0.1                 0.0701698
OA                                      0.15                0.092435073
OA                                      0.2                 0.110293629
OA                                      0.25                0.125638873
OA                                      0.3                 0.13930387
OA                                      0.35                0.151743237
OA                                      0.4                 0.163237409
OA                                      0.45                0.17397383
OA                                      0.5                 0.184085131
OA                                      0.55                0.193669247
OA                                      0.6                 0.202800934
OC                  RATING              0.0                 0.0
OC                                      0.05                0.072204129
OC                                      0.1                 0.1403396
OC                                      0.15                0.184870146
OC                                      0.2                 0.220587257
OC                                      0.25                0.251277745
OC                                      0.3                 0.278607739
OC                                      0.35                0.303486474
OC                                      0.4                 0.326474818
OC                                      0.45                0.34794766
OC                                      0.5                 0.368170262
OC                                      0.55                0.387338494
OC                                      0.6                 0.405601869
OG                  RATING              0.0                 0.0
OG                                      0.05                0.144408258
OG                                      0.1                 0.280679201
OG                                      0.15                0.369740291
OG                                      0.2                 0.441174514
OG                                      0.25                0.50255549
OG                                      0.3                 0.557215479
OG                                      0.35                0.606972947
OG                                      0.4                 0.652949637
OG                                      0.45                0.69589532
OG                                      0.5                 0.736340523
OG                                      0.55                0.774676987
OG                                      0.6                 0.811203738
OI                  RATING              0.0                 0.0
OI                                      0.05                0.192544343
OI                                      0.1                 0.374238935
OI                                      0.15                0.492987055
OI                                      0.2                 0.588232685
OI                                      0.25                0.670073987
OI                                      0.3                 0.742953972
OI                                      0.35                0.809297263
OI                                      0.4                 0.870599515
OI                                      0.45                0.927860427
OI                                      0.5                 0.981787364
OI                                      0.55                1.03290265
OI                                      0.6                 1.081604983
OK                  RATING              0.0                 0.0
OK                                      0.05                0.016045362
OK                                      0.1                 0.031186578
OK                                      0.15                0.041082255
OK                                      0.2                 0.04901939
OK                                      0.25                0.055839499
OK                                      0.3                 0.061912831
OK                                      0.35                0.067441439
OK                                      0.4                 0.07254996
OK                                      0.45                0.077321702
OK                                      0.5                 0.081815614
OK                                      0.55                0.086075221
OK                                      0.6                 0.090133749
OL                  RATING              0.0                 0.0
OL                                      0.05                0.401134049
OL                                      0.1                 0.779664447
OL                                      0.15                1.027056364
OL                                      0.2                 1.225484761
OL                                      0.25                1.395987473
OL                                      0.3                 1.547820775
OL                                      0.35                1.686035965
OL                                      0.4                 1.81374899
OL                                      0.45                1.933042556
OL                                      0.5                 2.045390342
OL                                      0.55                2.151880521
OL                                      0.6                 2.253343715
OM                  RATING              0.0                 0.0
OM                                      0.05                0.256725791
OM                                      0.1                 0.498985246
OM                                      0.15                0.657316073
OM                                      0.2                 0.784310247
OM                                      0.25                0.893431983
OM                                      0.3                 0.990605296
OM                                      0.35                1.079063018
OM                                      0.4                 1.160799354
OM                                      0.45                1.237147236
OM                                      0.5                 1.309049819
OM                                      0.55                1.377203533
OM                                      0.6                 1.442139978
ON                  RATING              0.0                 0.0
ON                                      0.05                0.096272172
ON                                      0.1                 0.187119467
ON                                      0.15                0.246493527
ON                                      0.2                 0.294116343
ON                                      0.25                0.335036994
ON                                      0.3                 0.371476986
ON                                      0.35                0.404648632
ON                                      0.4                 0.435299758
ON                                      0.45                0.463930214
ON                                      0.5                 0.490893682
ON                                      0.55                0.516451325
ON                                      0.6                 0.540802492
OP                  RATING              0.0                 0.0
OP                                      0.05                0.087358082
OP                                      0.1                 0.169793591
OP                                      0.15                0.223670053
OP                                      0.2                 0.266883348
OP                                      0.25                0.30401505
OP                                      0.3                 0.337080969
OP                                      0.35                0.367181166
OP                                      0.4                 0.394994225
OP                                      0.45                0.420973712
OP                                      0.5                 0.445440563
OP                                      0.55                0.468631758
OP                                      0.6                 0.490728187
OQ                  RATING              0.0                 0.0
OQ                                      0.05                0.178281799
OQ                                      0.1                 0.346517532
OQ                                      0.15                0.456469495
OQ                                      0.2                 0.544659894
OQ                                      0.25                0.620438877
OQ                                      0.3                 0.687920344
OQ                                      0.35                0.749349318
OQ                                      0.4                 0.806110662
OQ                                      0.45                0.859130025
OQ                                      0.5                 0.909062374
OQ                                      0.55                0.956391342
OQ                                      0.6                 1.001486096
OR                  RATING              0.0                 0.0
OR                                      0.05                0.320907239
OR                                      0.1                 0.623731558
OR                                      0.15                0.821645091
OR                                      0.2                 0.980387809
OR                                      0.25                1.116789978
OR                                      0.3                 1.23825662
OR                                      0.35                1.348828772
OR                                      0.4                 1.450999192
OR                                      0.45                1.546434045
OR                                      0.5                 1.636312273
OR                                      0.55                1.721504416
OR                                      0.6                 1.802674972
AO                  RATING              0.0                 0.0
AO                                      0.05                0.01384055
AO                                      0.1                 0.0353022
AO                                      0.15                0.06438495
AO                                      0.2                 0.1010888
AO                                      0.25                0.14541375
AO                                      0.3                 0.1973598
AO                                      0.35                0.25692695
AO                                      0.4                 0.3241152
AO                                      0.45                0.39892455
AO                                      0.5                 0.481355
AO                                      0.55                0.57140655
AO                                      0.6                 0.6690792
AC                  RATING              0.0                 0.0
AC                                      0.05                0.086044679
AC                                      0.1                 0.1756418
AC                                      0.15                0.249255096
AC                                      0.2                 0.321676057
AC                                      0.25                0.396691495
AC                                      0.3                 0.475967539
AC                                      0.35                0.560413424
AC                                      0.4                 0.650590018
AC                                      0.45                0.74687221
AC                                      0.5                 0.849525262
AC                                      0.55                0.958745044
AC                                      0.6                 1.074681069
BC                  RATING              0.0                 0.0
BC                                      0.05                0.091743729
BC                                      0.1                 0.190178
BC                                      0.15                0.275766546
BC                                      0.2                 0.363300857
BC                                      0.25                0.456567745
BC                                      0.3                 0.557233339
BC                                      0.35                0.666206874
BC                                      0.4                 0.784049218
BC                                      0.45                0.91113526
BC                                      0.5                 1.047730262
BC                                      0.55                1.194030094
BC                                      0.6                 1.350184269
BG                  RATING              0.0                 0.0
BG                                      0.05                0.163947858
BG                                      0.1                 0.330517601
BG                                      0.15                0.460636691
BG                                      0.2                 0.583888114
BG                                      0.25                0.70784549
BG                                      0.3                 0.835841079
BG                                      0.35                0.969693347
BG                                      0.4                 1.110524037
BG                                      0.45                1.25908292
BG                                      0.5                 1.415900523
BG                                      0.55                1.581368587
BG                                      0.6                 1.755786138
CO                  RATING              0.0                 0.0
CO                                      0.05                0.0293094
CO                                      0.1                 0.0747576
CO                                      0.15                0.1363446
CO                                      0.2                 0.2140704
CO                                      0.25                0.307935
CO                                      0.3                 0.4179384
CO                                      0.35                0.5440806
CO                                      0.4                 0.6863616
CO                                      0.45                0.8447814
CO                                      0.5                 1.01934
CO                                      0.55                1.2100374
CO                                      0.6                 1.4168736
CC                  RATING              0.0                 0.0
CC                                      0.05                0.101513529
CC                                      0.1                 0.2150972
CC                                      0.15                0.321214746
CC                                      0.2                 0.434657657
CC                                      0.25                0.559212745
CC                                      0.3                 0.696546139
CC                                      0.35                0.847567074
CC                                      0.4                 1.012836418
CC                                      0.45                1.19272906
CC                                      0.5                 1.387510262
CC                                      0.55                1.597375894
CC                                      0.6                 1.822475469
DC                  RATING              0.0                 0.0
DC                                      0.05                0.111283329
DC                                      0.1                 0.2400164
DC                                      0.15                0.366662946
DC                                      0.2                 0.506014457
DC                                      0.25                0.661857745
DC                                      0.3                 0.835858939
DC                                      0.35                1.028927274
DC                                      0.4                 1.241623618
DC                                      0.45                1.47432286
DC                                      0.5                 1.727290262
DC                                      0.55                2.000721694
DC                                      0.6                 2.294766669
DN                  RATING              0.0                 0.0
DN                                      0.05                0.135351372
DN                                      0.1                 0.286796267
DN                                      0.15                0.428286327
DN                                      0.2                 0.579543543
DN                                      0.25                0.745616994
DN                                      0.3                 0.928728186
DN                                      0.35                1.130089432
DN                                      0.4                 1.350448558
DN                                      0.45                1.590305414
DN                                      0.5                 1.850013682
DN                                      0.55                2.129834525
DN                                      0.6                 2.429967292
EC                  RATING              0.0                 0.0
EC                                      0.05                0.121053129
EC                                      0.1                 0.2649356
EC                                      0.15                0.412111146
EC                                      0.2                 0.577371257
EC                                      0.25                0.764502745
EC                                      0.3                 0.975171739
EC                                      0.35                1.210287474
EC                                      0.4                 1.470410818
EC                                      0.45                1.75591666
EC                                      0.5                 2.067070262
EC                                      0.55                2.404067494
EC                                      0.6                 2.767057869
FC                  RATING              0.0                 0.0
FC                                      0.05                0.140592729
FC                                      0.1                 0.314774
FC                                      0.15                0.503007546
FC                                      0.2                 0.720084857
FC                                      0.25                0.969792745
FC                                      0.3                 1.253797339
FC                                      0.35                1.573007874
FC                                      0.4                 1.927985218
FC                                      0.45                2.31910426
FC                                      0.5                 2.746630262
FC                                      0.55                3.210759094
FC                                      0.6                 3.711640269
M5_1                RATING              0.0                 0.0
M5_1                                    0.05                0.102957739
M5_1                                    0.1                 0.200113875
M5_1                                    0.15                0.263611133
M5_1                                    0.2                 0.314541089
M5_1                                    0.25                0.358303451
M5_1                                    0.3                 0.397273999
M5_1                                    0.35                0.432749231
M5_1                                    0.4                 0.465528908
M5_1                                    0.45                0.496147589
M5_1                                    0.5                 0.524983521
M5_1                                    0.55                0.552316
M5_1                                    0.6                 0.57835822
M5_2                RATING              0.0                 0.0
M5_2                                    0.05                0.229448676
M5_2                                    0.1                 0.445968064
M5_2                                    0.15                0.58747624
M5_2                                    0.2                 0.700977283
M5_2                                    0.25                0.798504835
M5_2                                    0.3                 0.885353483
M5_2                                    0.35                0.964412572
M5_2                                    0.4                 1.037464422
M5_2                                    0.45                1.105700342
M5_2                                    0.5                 1.169963275
M5_2                                    0.55                1.230875658
M5_2                                    0.6                 1.288912605
M5_3                RATING              0.0                 0.0
M5_3                                    0.05                0.594569801
M5_3                                    0.1                 1.155635969
M5_3                                    0.15                1.522325766
M5_3                                    0.2                 1.816440746
M5_3                                    0.25                2.069163655
M5_3                                    0.3                 2.294214348
M5_3                                    0.35                2.499079975
M5_3                                    0.4                 2.688379059
M5_3                                    0.45                2.865198634
M5_3                                    0.5                 3.031723018
M5_3                                    0.55                3.189565127
M5_3                                    0.6                 3.339956129
DA                  RATING              0.0                 0.0
DA                                      0.05                0.075181264
DA                                      0.1                 0.1698466
DA                                      0.15                0.274227873
DA                                      0.2                 0.395720829
DA                                      0.25                0.536218873
DA                                      0.3                 0.69655507
DA                                      0.35                0.877184037
DA                                      0.4                 1.078386209
DA                                      0.45                1.30034903
DA                                      0.5                 1.543205131
DA                                      0.55                1.807052447
DA                                      0.6                 2.091965734
EA                  RATING              0.0                 0.0
EA                                      0.05                0.084951064
EA                                      0.1                 0.1947658
EA                                      0.15                0.319676073
EA                                      0.2                 0.467077629
EA                                      0.25                0.638863873
EA                                      0.3                 0.83586787
EA                                      0.35                1.058544237
EA                                      0.4                 1.307173409
EA                                      0.45                1.58194283
EA                                      0.5                 1.882985131
EA                                      0.55                2.210398247
EA                                      0.6                 2.564256934
FA                  RATING              0.0                 0.0
FA                                      0.05                0.104490664
FA                                      0.1                 0.2446042
FA                                      0.15                0.410572473
FA                                      0.2                 0.609791229
FA                                      0.25                0.844153873
FA                                      0.3                 1.11449347
FA                                      0.35                1.421264637
FA                                      0.4                 1.764747809
FA                                      0.45                2.14513043
FA                                      0.5                 2.562545131
FA                                      0.55                3.017089847
FA                                      0.6                 3.508839334
AA                  RATING              0.0                 0.0
AA                                      0.05                0.049942614
AA                                      0.1                 0.105472
AA                                      0.15                0.156820023
AA                                      0.2                 0.211382429
AA                                      0.25                0.271052623
AA                                      0.3                 0.33666367
AA                                      0.35                0.408670187
AA                                      0.4                 0.487352609
AA                                      0.45                0.57289838
AA                                      0.5                 0.665440131
AA                                      0.55                0.765075797
AA                                      0.6                 0.871880134
CD                  RATING              0.0                 0.0
CD                                      0.05                0.129592912
CD                                      0.1                 0.269673712
CD                                      0.15                0.393108691
CD                                      0.2                 0.52044159
CD                                      0.25                0.656931868
CD                                      0.3                 0.804893594
CD                                      0.35                0.965589591
CD                                      0.4                 1.139798848
CD                                      0.45                1.328042039
CD                                      0.5                 1.530687585
CD                                      0.55                1.74800753
CD                                      0.6                 1.980209529
ED                  RATING              0.0                 0.0
ED                                      0.05                0.149132512
ED                                      0.1                 0.319512112
ED                                      0.15                0.484005091
ED                                      0.2                 0.66315519
ED                                      0.25                0.862221868
ED                                      0.3                 1.083519194
ED                                      0.35                1.328309991
ED                                      0.4                 1.597373248
ED                                      0.45                1.891229639
ED                                      0.5                 2.210247585
ED                                      0.55                2.55469913
ED                                      0.6                 2.924791929
OB                  RATING              0.0                 0.0
OB                                      0.05                0.064181448
OB                                      0.1                 0.124746312
OB                                      0.15                0.164329018
OB                                      0.2                 0.196077562
OB                                      0.25                0.223357996