[OPTIONS]
;;Option            Value              
;;----------------  ----------------   
START_DATE          01/01/2019         
START_TIME          00:00:00           
END_DATE            01/02/2019         
END_TIME            06:00:00           
REPORT_STEP         00:01:00           
FLOW_UNITS          CFS                
INFILTRATION        GREEN_AMPT         
FORCE_MAIN_EQUATION H-W                
FLOW_ROUTING        DYNWAVE            
ALLOW_PONDING       YES                
ROUTING_STEP        00:00:01           
LINK_OFFSETS        ELEVATION          

[RAINGAGES]
;;Name              Form                Intvl               SnowCatchDeficiency Format              Param1              Param2              Param3             
;;                                                                              TIMESERIES          Tseries            
;;                                                                              FILE                Fname               Sta                 Units              
;;----------------  ----------------    ----------------    ----------------    ----------------    ----------------    ----------------    ----------------   
HDR                 VOLUME              0.08333333333333333 1.0                 TIMESERIES          HDR_rf                                                     
IMPERV              VOLUME              0.08333333333333333 1.0                 TIMESERIES          IMPERV_rf                                                  
IND                 VOLUME              0.08333333333333333 1.0                 TIMESERIES          IND_rf                                                     
MDR                 VOLUME              0.08333333333333333 1.0                 TIMESERIES          MDR_rf                                                     
OS                  VOLUME              0.08333333333333333 1.0                 TIMESERIES          OS_rf                                                      
SCHOOL              VOLUME              0.08333333333333333 1.0                 TIMESERIES          SCHOOL_rf                                                  

[JUNCTIONS]
;;Name              Elev                Ymax                Y0                  Ysur                Apond              
;;----------------  ----------------    ----------------    ----------------    ----------------    ----------------   
Node7               926.5077            20.00030000000004   0.0                 0.0                 0.0                

[OUTFALLS]
;;Name              Elev                Type                Param1              Gated               RouteTo            
;;                                      FREE                Gated               RouteTo            
;;                                      NORMAL              Gated               RouteTo            
;;                                      FIXED               Stage               Gated               RouteTo            
;;                                      TIDAL               Tcurve              Gated               RouteTo            
;;                                      TIMESERIES          Tseries             Gated               RouteTo            
;;----------------  ----------------    ----------------    ----------------    ----------------    ----------------   
Node8               926.398             FIXED               926.398                                                    

[CONDUITS]
;;Name              From Node           To Node             Length              Roughness           InOffset            OutOffset           InitFlow            MaxFlow            
;;----------------  ----------------    ----------------    ----------------    ----------------    ----------------    ----------------    ----------------    ----------------   
Link112             Node7               Node8               117.64              0.015               926.5077            926.398             0.0                                    

[LOSSES]
;;Link              Kentry              Kexit               Kavg                Flap                Seepage            
;;----------------  ----------------    ----------------    ----------------    ----------------    ----------------   
Link112             0.0                 0.0                 0.0                                                        

[XSECTIONS]
;;Link              XsecType            Param1              Param2              Param3              Param4              Param5              Param6             
;;                  Default             Geom1               Geom2               Geom3               Geom4               Barrels             Culvert            
;;                  CUSTOM              Geom1               Curve               Geom3               Geom4               Barrels            
;;                  IRREGULAR           Tsect              
;;                  STREET              Street             
;;----------------  ----------------    ----------------    ----------------    ----------------    ----------------    ----------------    ----------------   
Link112             IRREGULAR           trap_8'bot                                                                                                             

[TRANSECTS]
;;Datatype          Param1              Param2              Param3              Param4              Param5              Param6              Param7              Param8              Param9              Param10            
;;----------------  ----------------    ----------------    ----------------    ----------------    ----------------    ----------------    ----------------    ----------------    ----------------    ----------------   
NC                  0.234               0.345               0.112                                                                                                                                                          
X1                  trap_8'bot          4                   -4.0                4.0                 0                   0                   0                   0.0                 0.0                 0.0                
GR                  20.0                -14.0                                                                                                                                                                              
GR                  0.0                 -4.0                                                                                                                                                                               
GR                  0.0                 4.0                                                                                                                                                                                
GR                  20.0                14.0                                                                                                                                                                               

[TIMESERIES]
;;Name              Date                Time                Value              
;;----------------  ----------------    ----------------    ----------------   
MDR_rf                                  0.0                 0.0009             
MDR_rf                                  0.08333333333333333 0.0009             
MDR_rf                                  0.16666666666666666 0.0009             
MDR_rf                                  0.25                0.001              
MDR_rf                                  0.3333333333333333  0.001              
MDR_rf                                  0.41666666666666663 0.001              
MDR_rf                                  0.5                 0.001              
MDR_rf                                  0.5833333333333333  0.001              
MDR_rf                                  0.6666666666666666  0.001              
MDR_rf                                  0.75                0.001              
MDR_rf                                  0.8333333333333333  0.001              
MDR_rf                                  0.9166666666666666  0.001              
MDR_rf                                  1.0                 0.001              
MDR_rf                                  1.0833333333333333  0.001              
MDR_rf                                  1.1666666666666665  0.001              
MDR_rf                                  1.25                0.001              
MDR_rf                                  1.3333333333333333  0.001              
MDR_rf                                  1.4166666666666665  0.001              
MDR_rf                                  1.5                 0.001              
MDR_rf                                  1.5833333333333333  0.001              
MDR_rf                                  1.6666666666666665  0.001              
MDR_rf                                  1.75                0.001              
MDR_rf                                  1.8333333333333333  0.001              
MDR_rf                                  1.9166666666666665  0.001              
MDR_rf                                  2.0                 0.001              
MDR_rf                                  2.083333333333333   0.001              
MDR_rf                                  2.1666666666666665  0.001              
MDR_rf                                  2.25                0.001              
MDR_rf                                  2.333333333333333   0.001              
MDR_rf                                  2.4166666666666665  0.001              
MDR_rf                                  2.5                 0.001              
MDR_rf                                  2.583333333333333   0.001              
MDR_rf                                  2.6666666666666665  0.001              
MDR_rf                                  2.75                0.0011             
MDR_rf                                  2.833333333333333   0.0011             
MDR_rf                                  2.9166666666666665  0.0011             
MDR_rf                                  3.0                 0.0011             
MDR_rf                                  3.083333333333333   0.0011             
MDR_rf                                  3.1666666666666665  0.0011             
MDR_rf                                  3.25                0.0011             
MDR_rf                                  3.333333333333333   0.0011             
MDR_rf                                  3.4166666666666665  0.0011             
MDR_rf                                  3.5                 0.0011             
MDR_rf                                  3.583333333333333   0.0011             
MDR_rf                                  3.6666666666666665  0.0011             
MDR_rf                                  3.75                0.0011             
MDR_rf                                  3.833333333333333   0.0011             
MDR_rf                                  3.9166666666666665  0.0011             
MDR_rf                                  4.0                 0.0011             
MDR_rf                                  4.083333333333333   0.0011             
MDR_rf                                  4.166666666666666   0.0011             
MDR_rf                                  4.25                0.0011             
MDR_rf                                  4.333333333333333   0.0011             
MDR_rf                                  4.416666666666666   0.0011             
MDR_rf                                  4.5                 0.0011             
MDR_rf                                  4.583333333333333   0.0011             
MDR_rf                                  4.666666666666666   0.0012             
MDR_rf                                  4.75                0.0012             
MDR_rf                                  4.833333333333333   0.0012             
MDR_rf                                  4.916666666666666   0.0012             
MDR_rf                                  5.0                 0.0012             
MDR_rf                                  5.083333333333333   0.0012             
MDR_rf                                  5.166666666666666   0.0012             
MDR_rf                                  5.25                0.0012             
MDR_rf                                  5.333333333333333   0.0012             
MDR_rf                                  5.416666666666666   0.0012             
MDR_rf                                  5.5                 0.0012             
MDR_rf                                  5.583333333333333   0.0012             
MDR_rf                                  5.666666666666666   0.0012             
MDR_rf                                  5.75                0.0012             
MDR_rf                                  5.833333333333333   0.0012             
MDR_rf                                  5.916666666666666   0.0012             
MDR_rf                                  6.0                 0.0012             
MDR_rf                                  6.083333333333333   0.0012             
MDR_rf                                  6.166666666666666   0.0013             
MDR_rf                                  6.25                0.0013             
MDR_rf                                  6.333333333333333   0.0013             
MDR_rf                                  6.416666666666666   0.0013             
MDR_rf                                  6.5                 0.0013             
MDR_rf                                  6.583333333333333   0.0013             
MDR_rf                                  6.666666666666666   0.0013             
MDR_rf                                  6.75                0.0013             
MDR_rf                                  6.833333333333333   0.0013             
MDR_rf                                  6.916666666666666   0.0013             
MDR_rf                                  7.0                 0.0013             
MDR_rf                                  7.083333333333333   0.0013             
MDR_rf                                  7.166666666666666   0.0013             
MDR_rf                                  7.25                0.0013             
MDR_rf                                  7.333333333333333   0.0013             
MDR_rf                                  7.416666666666666   0.0014             
MDR_rf                                  7.5                 0.0014             
MDR_rf                                  7.583333333333333   0.0014             
MDR_rf                                  7.666666666666666   0.0014             
MDR_rf                                  7.75                0.0014             
MDR_rf                                  7.833333333333333   0.0014             
MDR_rf                                  7.916666666666666   0.0014             
MDR_rf                                  8.0                 0.0014             
MDR_rf                                  8.083333333333332   0.0014             
MDR_rf                                  8.166666666666666   0.0014             
MDR_rf                                  8.25                0.0014             
MDR_rf                                  8.333333333333332   0.0014             
MDR_rf                                  8.416666666666666   0.0015             
MDR_rf                                  8.5                 0.0015             
MDR_rf                                  8.583333333333332   0.0015             
MDR_rf                                  8.666666666666666   0.0015             
MDR_rf                                  8.75                0.0015             
MDR_rf                                  8.833333333333332   0.0015             
MDR_rf                                  8.916666666666666   0.0015             
MDR_rf                                  9.0                 0.0015             
MDR_rf                                  9.083333333333332   0.0015             
MDR_rf                                  9.166666666666666   0.0016             
MDR_rf                                  9.25                0.0016             
MDR_rf                                  9.333333333333332   0.0016             
MDR_rf                                  9.416666666666666   0.0016             
MDR_rf                                  9.5                 0.0016             
MDR_rf                                  9.583333333333332   0.0016             
MDR_rf                                  9.666666666666666   0.0016             
MDR_rf                                  9.75                0.0016             
MDR_rf                                  9.833333333333332   0.0016             
MDR_rf                                  9.916666666666666   0.0017             
MDR_rf                                  10.0                0.0017             
MDR_rf                                  10.083333333333332  0.0017             
MDR_rf                                  10.166666666666666  0.0017             
MDR_rf                                  10.25               0.0017             
MDR_rf                                  10.333333333333332  0.0017             
MDR_rf                                  10.416666666666666  0.0017             
MDR_rf                                  10.5                0.0018             
MDR_rf                                  10.583333333333332  0.0018             
MDR_rf                                  10.666666666666666  0.0018             
MDR_rf                                  10.75               0.0018             
MDR_rf                                  10.833333333333332  0.0018             
MDR_rf                                  10.916666666666666  0.0018             
MDR_rf                                  11.0                0.0019             
MDR_rf                                  11.083333333333332  0.0019             
MDR_rf                                  11.166666666666666  0.0019             
MDR_rf                                  11.25               0.0019             
MDR_rf                                  11.333333333333332  0.0019             
MDR_rf                                  11.416666666666666  0.002              
MDR_rf                                  11.5                0.002              
MDR_rf                                  11.583333333333332  0.002              
MDR_rf                                  11.666666666666666  0.002              
MDR_rf                                  11.75               0.002              
MDR_rf                                  11.833333333333332  0.0021             
MDR_rf                                  11.916666666666666  0.0021             
MDR_rf                                  12.0                0.0024             
MDR_rf                                  12.083333333333332  0.0024             
MDR_rf                                  12.166666666666666  0.0024             
MDR_rf                                  12.25               0.0024             
MDR_rf                                  12.333333333333332  0.0025             
MDR_rf                                  12.416666666666666  0.0025             
MDR_rf                                  12.5                0.0025             
MDR_rf                                  12.583333333333332  0.0026             
MDR_rf                                  12.666666666666666  0.0026             
MDR_rf                                  12.75               0.0026             
MDR_rf                                  12.833333333333332  0.0027             
MDR_rf                                  12.916666666666666  0.0027             
MDR_rf                                  13.0                0.0028             
MDR_rf                                  13.083333333333332  0.0028             
MDR_rf                                  13.166666666666666  0.0029             
MDR_rf                                  13.25               0.0029             
MDR_rf                                  13.333333333333332  0.003              
MDR_rf                                  13.416666666666666  0.003              
MDR_rf                                  13.5                0.0031             
MDR_rf                                  13.583333333333332  0.0031             
MDR_rf                                  13.666666666666666  0.0032             
MDR_rf                                  13.75               0.0032             
MDR_rf                                  13.833333333333332  0.0033             
MDR_rf                                  13.916666666666666  0.0033             
MDR_rf                                  14.0                0.0035             
MDR_rf                                  14.083333333333332  0.0036             
MDR_rf                                  14.166666666666666  0.0037             
MDR_rf                                  14.25               0.0038             
MDR_rf                                  14.333333333333332  0.0039             
MDR_rf                                  14.416666666666666  0.004              
MDR_rf                                  14.5                0.0041             
MDR_rf                                  14.583333333333332  0.0042             
MDR_rf                                  14.666666666666666  0.0044             
MDR_rf                                  14.75               0.0045             
MDR_rf                                  14.833333333333332  0.0047             
MDR_rf                                  14.916666666666666  0.0048             
MDR_rf                                  15.0                0.0057             
MDR_rf                                  15.083333333333332  0.0068             
MDR_rf                                  15.166666666666666  0.0094             
MDR_rf                                  15.25               0.011              
MDR_rf                                  15.333333333333332  0.0215             
MDR_rf                                  15.416666666666666  0.0237             
MDR_rf                                  15.5                0.0291             
MDR_rf                                  15.583333333333332  0.0326             
MDR_rf                                  15.666666666666666  0.0408             
MDR_rf                                  15.75               0.0478             
MDR_rf                                  15.833333333333332  0.0725             
MDR_rf                                  15.916666666666666  0.1012             
MDR_rf                                  16.0                0.26               
MDR_rf                                  16.083333333333332  0.0574             
MDR_rf                                  16.166666666666664  0.0368             
MDR_rf                                  16.25               0.0262             
MDR_rf                                  16.333333333333332  0.0127             
MDR_rf                                  16.416666666666664  0.0081             
MDR_rf                                  16.5                0.005              
MDR_rf                                  16.583333333333332  0.0046             
MDR_rf                                  16.666666666666664  0.0043             
MDR_rf                                  16.75               0.004              
MDR_rf                                  16.833333333333332  0.0038             
MDR_rf                                  16.916666666666664  0.0036             
MDR_rf                                  17.0                0.0034             
MDR_rf                                  17.083333333333332  0.0033             
MDR_rf                                  17.166666666666664  0.0031             
MDR_rf                                  17.25               0.003              
MDR_rf                                  17.333333333333332  0.0029             
MDR_rf                                  17.416666666666664  0.0028             
MDR_rf                                  17.5                0.0027             
MDR_rf                                  17.583333333333332  0.0027             
MDR_rf                                  17.666666666666664  0.0026             
MDR_rf                                  17.75               0.0025             
MDR_rf                                  17.833333333333332  0.0025             
MDR_rf                                  17.916666666666664  0.0024             
MDR_rf                                  18.0                0.0021             
MDR_rf                                  18.083333333333332  0.0021             
MDR_rf                                  18.166666666666664  0.002              
MDR_rf                                  18.25               0.002              
MDR_rf                                  18.333333333333332  0.0019             
MDR_rf                                  18.416666666666664  0.0019             
MDR_rf                                  18.5                0.0019             
MDR_rf                                  18.583333333333332  0.0018             
MDR_rf                                  18.666666666666664  0.0018             
MDR_rf                                  18.75               0.0018             
MDR_rf                                  18.833333333333332  0.0017             
MDR_rf                                  18.916666666666664  0.0017             
MDR_rf                                  19.0                0.0017             
MDR_rf                                  19.083333333333332  0.0016             
MDR_rf                                  19.166666666666664  0.0016             
MDR_rf                                  19.25               0.0016             
MDR_rf                                  19.333333333333332  0.0016             
MDR_rf                                  19.416666666666664  0.0015             
MDR_rf                                  19.5                0.0015             
MDR_rf                                  19.583333333333332  0.0015             
MDR_rf                                  19.666666666666664  0.0015             
MDR_rf                                  19.75               0.0015             
MDR_rf                                  19.833333333333332  0.0014             
MDR_rf                                  19.916666666666664  0.0014             
MDR_rf                                  20.0                0.0014             
MDR_rf                                  20.083333333333332  0.0014             
MDR_rf                                  20.166666666666664  0.0014             
MDR_rf                                  20.25               0.0014             
MDR_rf                                  20.333333333333332  0.0013             
MDR_rf                                  20.416666666666664  0.0013             
MDR_rf                                  20.5                0.0013             
MDR_rf                                  20.583333333333332  0.0013             
MDR_rf                                  20.666666666666664  0.0013             
MDR_rf                                  20.75               0.0013             
MDR_rf                                  20.833333333333332  0.0013             
MDR_rf                                  20.916666666666664  0.0012             
MDR_rf                                  21.0                0.0012             
MDR_rf                                  21.083333333333332  0.0012             
MDR_rf                                  21.166666666666664  0.0012             
MDR_rf                                  21.25               0.0012             
MDR_rf                                  21.333333333333332  0.0012             
MDR_rf                                  21.416666666666664  0.0012             
MDR_rf                                  21.5                0.0012             
MDR_rf                                  21.583333333333332  0.0012             
MDR_rf                                  21.666666666666664  0.0011             
MDR_rf                                  21.75               0.0011             
MDR_rf                                  21.833333333333332  0.0011             
MDR_rf                                  21.916666666666664  0.0011             
MDR_rf                                  22.0                0.0011             
MDR_rf                                  22.083333333333332  0.0011             
MDR_rf                                  22.166666666666664  0.0011             
MDR_rf                                  22.25               0.0011             
MDR_rf                                  22.333333333333332  0.0011             
MDR_rf                                  22.416666666666664  0.0011             
MDR_rf                                  22.5                0.0011             
MDR_rf                                  22.583333333333332  0.0011             
MDR_rf                                  22.666666666666664  0.001              
MDR_rf                                  22.75               0.001              
MDR_rf                                  22.833333333333332  0.001              
MDR_rf                                  22.916666666666664  0.001              
MDR_rf                                  23.0                0.001              
MDR_rf                                  23.083333333333332  0.001              
MDR_rf                                  23.166666666666664  0.001              
MDR_rf                                  23.25               0.001              
MDR_rf                                  23.333333333333332  0.001              
MDR_rf                                  23.416666666666664  0.001              
MDR_rf                                  23.5                0.001              
MDR_rf                                  23.583333333333332  0.001              