[OPTIONS]
;;Option            Value
;;----------------  ----------------
START_DATE          01/01/1995
START_TIME          00:00:00
END_DATE            01/02/1995
END_TIME            00:00:00
REPORT_STEP         00:01:00
FLOW_UNITS          CFS
INFILTRATION
FORCE_MAIN_EQUATION H-W
FLOW_ROUTING        DYNWAVE
ALLOW_PONDING       YES
ROUTING_STEP        00:00:01
LINK_OFFSETS        ELEVATION

[RAINGAGES]
;;Name              Form                Intvl               SnowCatchDeficiency Format              Param1              Param2              Param3
;;                                                                              TIMESERIES          Tseries
;;                                                                              FILE                Fname               Sta                 Units
;;----------------  ----------------    ----------------    ----------------    ----------------    ----------------    ----------------    ----------------
Rainfall            CUMULATIVE          0.1                 1.0                 TIMESERIES          Rainfall

[SUBCATCHMENTS]
;;Name              Rain Gage           Outlet              Area                PctImperv           Width               PctSlope            CurbLen             SnowPack
;;----------------  ----------------    ----------------    ----------------    ----------------    ----------------    ----------------    ----------------    ----------------
CB-1#1              Rainfall            CB-1                1.582               0.0                 0.0                 0.01                0.0
CB-2#1              Rainfall            CB-2                1.215               0.0                 0.0                 0.01                0.0
CB-5#1              Rainfall            CB-5                1.902               0.0                 0.0                 0.01                0.0
CB-7#1              Rainfall            CB-7                1.312               0.0                 0.0                 0.01                0.0
CB-7#2              Rainfall            CB-7                0                   0                   0                   0                   0.0
CB-7#3              Rainfall            CB-7                0                   0                   0                   0                   0.0
CC#1                Rainfall            CC                  0.183               0.0                 0.0                 0.01                0.0
EX_INLT-1#1         Rainfall            EX_INLT-1           1.588               0.0                 0.0                 0.01                0.0
EX_INLT-1#2         Rainfall            EX_INLT-1           0                   0                   0                   0                   0.0
EX_INLT-23#1        Rainfall            EX_INLT-23          2.73                0.0                 0.0                 0.01                0.0
EX_INLT-24#1        Rainfall            EX_INLT-24          15.23               0.0                 0.0                 0.01                0.0
EX_INLT-25#1        Rainfall            EX_INLT-25          1.741               0.0                 0.0                 0.01                0.0
EX_INLT-25#2        Rainfall            EX_INLT-25          0                   0                   0                   0                   0.0
EX_INLT-25#3        Rainfall            EX_INLT-25          0                   0                   0                   0                   0.0
EX_INLT-26#1        Rainfall            EX_INLT-26          1.33                0.0                 0.0                 0.01                0.0
EX_INLT-27#1        Rainfall            EX_INLT-27          1.133               0.0                 0.0                 0.01                0.0
EX_INLT-28#1        Rainfall            EX_INLT-28          3.059               0.0                 0.0                 0.01                0.0
EX_INLT-29#1        Rainfall            EX_INLT-29          1.843               0.0                 0.0                 0.01                0.0
EX_INLT-30#1        Rainfall            EX_INLT-30          2.719               0.0                 0.0                 0.01                0.0
EX_INLT-31#1        Rainfall            EX_INLT-31          4.447               0.0                 0.0                 0.01                0.0
EX_INLT-38#1        Rainfall            EX_INLT-38          3.689               0.0                 0.0                 0.01                0.0
EX_INLT-39#1        Rainfall            EX_INLT-39          0.902               0.0                 0.0                 0.01                0.0
EX_INLT-45#1        Rainfall            EX_INLT-45          1.534               0.0                 0.0                 0.01                0.0
EX_INLT-46#1        Rainfall            EX_INLT-46          0.898               0.0                 0.0                 0.01                0.0
EX_INLT-47#1        Rainfall            EX_INLT-47          0.545               0.0                 0.0                 0.01                0.0
EX_INLT-49#1        Rainfall            EX_INLT-49          0.311               0.0                 0.0                 0.01                0.0
EX_INLT-5#1         Rainfall            EX_INLT-5           0.848               0.0                 0.0                 0.01                0.0
EX_INLT-50#1        Rainfall            EX_INLT-50          1.198               0.0                 0.0                 0.01                0.0
EX_INLT-51#1        Rainfall            EX_INLT-51          3.545               0.0                 0.0                 0.01                0.0
EX_INLT-52#1        Rainfall            EX_INLT-52          0.169               0.0                 0.0                 0.01                0.0
EX_INLT-53#1        Rainfall            EX_INLT-53          0.465               0.0                 0.0                 0.01                0.0
EX_INLT-54#1        Rainfall            EX_INLT-54          0.867               0.0                 0.0                 0.01                0.0
EX_INLT-55#1        Rainfall            EX_INLT-55          4.599               0.0                 0.0                 0.01                0.0
EX_INLT-56#1        Rainfall            EX_INLT-56          0.284               0.0                 0.0                 0.01                0.0
EX_INLT-57#1        Rainfall            EX_INLT-57          1.834               0.0                 0.0                 0.01                0.0
EX_INLT-58#1        Rainfall            EX_INLT-58          3.441               0.0                 0.0                 0.01                0.0
EX_INLT-59#1        Rainfall            EX_INLT-59          0.45                0.0                 0.0                 0.01                0.0
EX_INLT-6#1         Rainfall            EX_INLT-6           3.108               0.0                 0.0                 0.01                0.0
EX_INLT-61#1        Rainfall            EX_INLT-61          0.916               0.0                 0.0                 0.01                0.0
EX_INLT-63#1        Rainfall            EX_INLT-63          0.534               0.0                 0.0                 0.01                0.0
EX_INLT-64#1        Rainfall            EX_INLT-64          2.653               0.0                 0.0                 0.01                0.0
EX_INLT-65#1        Rainfall            EX_INLT-65          2.717               0.0                 0.0                 0.01                0.0
EX_INLT-65#2        Rainfall            EX_INLT-65          0                   0                   0                   0                   0.0
EX_INLT-7#1         Rainfall            EX_INLT-7           0.244               0.0                 0.0                 0.01                0.0
EX_INLT-7#2         Rainfall            EX_INLT-7           0                   0                   0                   0                   0.0
EX_MH-11#1          Rainfall            EX_MH-11            4.827               0.0                 0.0                 0.01                0.0
EX_MH-18#1          Rainfall            EX_MH-18            6.292               0.0                 0.0                 0.01                0.0
INLT-21#1           Rainfall            INLT-21             0.894               0.0                 0.0                 0.01                0.0
INLT-4#1            Rainfall            INLT-4              1.187               0.0                 0.0                 0.01                0.0
INLT-4#2            Rainfall            INLT-4              0                   0                   0                   0                   0.0
INLT-AD11#1         Rainfall            INLT-AD11           2.081               0.0                 0.0                 0.01                0.0
INLT-AD16#1         Rainfall            INLT-AD16           4.399               0.0                 0.0                 0.01                0.0
INLT-B205#1         Rainfall            INLT-B205           0.103               0.0                 0.0                 0.01                0.0
INLT-B207#1         Rainfall            INLT-B207           1.597               0.0                 0.0                 0.01                0.0
INLT-B211#1         Rainfall            INLT-B211           1.056               0.0                 0.0                 0.01                0.0
INLT-B211#2         Rainfall            INLT-B211           0                   0                   0                   0                   0.0
INLT-B215#1         Rainfall            INLT-B215           0.336               0.0                 0.0                 0.01                0.0
INLT-B215#2         Rainfall            INLT-B215           0                   0                   0                   0                   0.0
INLT-B231#1         Rainfall            INLT-B231           0.205               0.0                 0.0                 0.01                0.0
INLT-B233#1         Rainfall            INLT-B233           0.72                0.0                 0.0                 0.01                0.0
INLT-B235#1         Rainfall            INLT-B235           0.24                0.0                 0.0                 0.01                0.0
INLT-B235#2         Rainfall            INLT-B235           0                   0                   0                   0                   0.0
INLT-B245#1         Rainfall            INLT-B245           0.175               0.0                 0.0                 0.01                0.0
INLT-B245#2         Rainfall            INLT-B245           0                   0                   0                   0                   0.0
INLT-B305#1         Rainfall            INLT-B305           1.752               0.0                 0.0                 0.01                0.0
INLT-B306#1         Rainfall            INLT-B306           0.289               0.0                 0.0                 0.01                0.0
INLT-B308#1         Rainfall            INLT-B308           0.383               0.0                 0.0                 0.01                0.0
INLT-B335#1         Rainfall            INLT-B335           1.22                0.0                 0.0                 0.01                0.0
INLT-C105#1         Rainfall            INLT-C105           0.454               0.0                 0.0                 0.01                0.0
INLT-C90C#1         Rainfall            INLT-C90C           1.669               0.0                 0.0                 0.01                0.0
INLT-HP07#1         Rainfall            INLT-HP07           3.054               0.0                 0.0                 0.01                0.0
INLT_GS1#1          Rainfall            INLT_GS1            0.901               0.0                 0.0                 0.01                0.0
INLT_GS2#1          Rainfall            INLT_GS2            0.606               0.0                 0.0                 0.01                0.0
INLT_WS1#1          Rainfall            INLT_WS1            1.342               0.0                 0.0                 0.01                0.0
INLT_WS2#1          Rainfall            INLT_WS2            1.036               0.0                 0.0                 0.01                0.0
INLT_WS3#1          Rainfall            INLT_WS3            0.833               0.0                 0.0                 0.01                0.0
INLT_WS3#2          Rainfall            INLT_WS3            0                   0                   0                   0                   0.0
MH-24#1             Rainfall            MH-24               0.921               0.0                 0.0                 0.01                0.0
MH-B100_2#1         Rainfall            MH-B100_2           0.47                0.0                 0.0                 0.01                0.0
MH-Hp07#1           Rainfall            MH-Hp07             1.444               0.0                 0.0                 0.01                0.0
PAS01#1             Rainfall            PAS01               0.659               0.0                 0.0                 0.01                0.0
PAS01#2             Rainfall            PAS01               0                   0                   0                   0                   0.0
PAS04#1             Rainfall            PAS04               1.044               0.0                 0.0                 0.01                0.0
PAS04#2             Rainfall            PAS04               0                   0                   0                   0                   0.0
PAS05#1             Rainfall            PAS05               0.706               0.0                 0.0                 0.01                0.0
PAS05#2             Rainfall            PAS05               0                   0                   0                   0                   0.0
PAS08#1             Rainfall            PAS08               0.347               0.0                 0.0                 0.01                0.0
PAS08#2             Rainfall            PAS08               0                   0                   0                   0                   0.0
PAS09#1             Rainfall            PAS09               0.199               0.0                 0.0                 0.01                0.0
PAS09#2             Rainfall            PAS09               0                   0                   0                   0                   0.0
PAS12#1             Rainfall            PAS12               0.664               0.0                 0.0                 0.01                0.0
PAS12#2             Rainfall            PAS12               0                   0                   0                   0                   0.0
PAS12#3             Rainfall            PAS12               0                   0                   0                   0                   0.0
PAS13#1             Rainfall            PAS13               0.516               0.0                 0.0                 0.01                0.0
PAS13#2             Rainfall            PAS13               0                   0                   0                   0                   0.0
PAS15#1             Rainfall            PAS15               0.533               0.0                 0.0                 0.01                0.0
PAS15#2             Rainfall            PAS15               0                   0                   0                   0                   0.0
PAS15#3             Rainfall            PAS15               0                   0                   0                   0                   0.0
PAS16#1             Rainfall            PAS16               0.312               0.0                 0.0                 0.01                0.0
PAS20#1             Rainfall            PAS20               0.058               0.0                 0.0                 0.01                0.0
PAS20#2             Rainfall            PAS20               0                   0                   0                   0                   0.0
PAS20#3             Rainfall            PAS20               0                   0                   0                   0                   0.0
PAS20#4             Rainfall            PAS20               0                   0                   0                   0                   0.0
PAS23#1             Rainfall            PAS23               0.128               0.0                 0.0                 0.01                0.0
PAS23#2             Rainfall            PAS23               0                   0                   0                   0                   0.0
U_B4#1              Rainfall            U_B4                3.277               0.0                 0.0                 0.01                0.0
U_B6-1#1            Rainfall            U_B6-1              1.246               0.0                 0.0                 0.01                0.0
U_B6-2#1            Rainfall            U_B6-2              1.023               0.0                 0.0                 0.01                0.0
U_GS1#1             Rainfall            U_GS1               1.2                 0.0                 0.0                 0.0                 0.0
U_GS3#1             Rainfall            U_GS3               0.86                0.0                 0.0                 0.01                0.0
U_GS4-1#1           Rainfall            U_GS4-1             0.66                0.0                 0.0                 0.01                0.0
U_HP10-1#1          Rainfall            U_HP10-1            1.852               0.0                 0.0                 0.01                0.0
U_HP10-4#1          Rainfall            U_HP10-4            1.221               0.0                 0.0                 0.01                0.0
U_HP11#1            Rainfall            U_HP11              1.838               0.0                 0.0                 0.01                0.0
U_HP5-2#1           Rainfall            U_HP5-2             1.437               0.0                 0.0                 0.01                0.0
U_HP5-2#2           Rainfall            U_HP5-2             0                   0                   0                   0                   0.0
U_HP5-2#3           Rainfall            U_HP5-2             0                   0                   0                   0                   0.0
U_HP6-3#1           Rainfall            U_HP6-3             0.802               0.0                 0.0                 0.01                0.0
U_HP6-3#2           Rainfall            U_HP6-3             0                   0                   0                   0                   0.0
U_HP7#1             Rainfall            U_HP7               1.052               0.0                 0.0                 0.01                0.0
U_HP9#1             Rainfall            U_HP9               1.458               0.0                 0.0                 0.01                0.0

[SUBAREAS]
;;Subcatchment      Nimp                Nperv               Simp                Sperv               PctZero             RouteTo             PctRouted
;;----------------  ----------------    ----------------    ----------------    ----------------    ----------------    ----------------    ----------------
CB-1#1              0.02                0.05                0.0                 0.0                 0.0                 OUTLET
CB-2#1              0.02                0.05                0.0                 0.0                 0.0                 OUTLET
CB-5#1              0.02                0.05                0.0                 0.0                 0.0                 OUTLET
CB-7#1              0.02                0.05                0.0                 0.0                 0.0                 OUTLET
CB-7#2              0.02                0.05                0.0                 0.0                 0.0                 OUTLET
CB-7#3              0.02                0.05                0.0                 0.0                 0.0                 OUTLET
CC#1                0.02                0.05                0.0                 0.0                 0.0                 OUTLET
EX_INLT-1#1         0.02                0.05                0.0                 0.0                 0.0                 OUTLET
EX_INLT-1#2         0.02                0.05                0.0                 0.0                 0.0                 OUTLET
EX_INLT-23#1        0.02                0.05                0.0                 0.0                 0.0                 OUTLET
EX_INLT-24#1        0.02                0.05                0.0                 0.0                 0.0                 OUTLET
EX_INLT-25#1        0.02                0.05                0.0                 0.0                 0.0                 OUTLET
EX_INLT-25#2        0.02                0.05                0.0                 0.0                 0.0                 OUTLET
EX_INLT-25#3        0.02                0.05                0.0                 0.0                 0.0                 OUTLET
EX_INLT-26#1        0.02                0.05                0.0                 0.0                 0.0                 OUTLET
EX_INLT-27#1        0.02                0.05                0.0                 0.0                 0.0                 OUTLET
EX_INLT-28#1        0.02                0.05                0.0                 0.0                 0.0                 OUTLET
EX_INLT-29#1        0.02                0.05                0.0                 0.0                 0.0                 OUTLET
EX_INLT-30#1        0.02                0.05                0.0                 0.0                 0.0                 OUTLET
EX_INLT-31#1        0.02                0.05                0.0                 0.0                 0.0                 OUTLET
EX_INLT-38#1        0.02                0.05                0.0                 0.0                 0.0                 OUTLET
EX_INLT-39#1        0.02                0.05                0.0                 0.0                 0.0                 OUTLET
EX_INLT-45#1        0.02                0.05                0.0                 0.0                 0.0                 OUTLET
EX_INLT-46#1        0.02                0.05                0.0                 0.0                 0.0                 OUTLET
EX_INLT-47#1        0.02                0.05                0.0                 0.0                 0.0                 OUTLET
EX_INLT-49#1        0.02                0.05                0.0                 0.0                 0.0                 OUTLET
EX_INLT-5#1         0.02                0.05                0.0                 0.0                 0.0                 OUTLET
EX_INLT-50#1        0.02                0.05                0.0                 0.0                 0.0                 OUTLET
EX_INLT-51#1        0.02                0.05                0.0                 0.0                 0.0                 OUTLET
EX_INLT-52#1        0.02                0.05                0.0                 0.0                 0.0                 OUTLET
EX_INLT-53#1        0.02                0.05                0.0                 0.0                 0.0                 OUTLET
EX_INLT-54#1        0.02                0.05                0.0                 0.0                 0.0                 OUTLET
EX_INLT-55#1        0.02                0.05                0.0                 0.0                 0.0                 OUTLET
EX_INLT-56#1        0.02                0.05                0.0                 0.0                 0.0                 OUTLET
EX_INLT-57#1        0.02                0.05                0.0                 0.0                 0.0                 OUTLET
EX_INLT-58#1        0.02                0.05                0.0                 0.0                 0.0                 OUTLET
EX_INLT-59#1        0.02                0.05                0.0                 0.0                 0.0                 OUTLET
EX_INLT-6#1         0.02                0.05                0.0                 0.0                 0.0                 OUTLET
EX_INLT-61#1        0.02                0.05                0.0                 0.0                 0.0                 OUTLET
EX_INLT-63#1        0.02                0.05                0.0                 0.0                 0.0                 OUTLET
EX_INLT-64#1        0.02                0.05                0.0                 0.0                 0.0                 OUTLET
EX_INLT-65#1        0.02                0.05                0.0                 0.0                 0.0                 OUTLET
EX_INLT-65#2        0.02                0.05                0.0                 0.0                 0.0                 OUTLET
EX_INLT-7#1         0.02                0.05                0.0                 0.0                 0.0                 OUTLET
EX_INLT-7#2         0.02                0.05                0.0                 0.0                 0.0                 OUTLET
EX_MH-11#1          0.02                0.05                0.0                 0.0                 0.0                 OUTLET
EX_MH-18#1          0.02                0.05                0.0                 0.0                 0.0                 OUTLET
INLT-21#1           0.02                0.05                0.0                 0.0                 0.0                 OUTLET
INLT-4#1            0.02                0.05                0.0                 0.0                 0.0                 OUTLET
INLT-4#2            0.02                0.05                0.0                 0.0                 0.0                 OUTLET
INLT-AD11#1         0.02                0.05                0.0                 0.0                 0.0                 OUTLET
INLT-AD16#1         0.02                0.05                0.0                 0.0                 0.0                 OUTLET
INLT-B205#1         0.02                0.05                0.0                 0.0                 0.0                 OUTLET
INLT-B207#1         0.02                0.05                0.0                 0.0                 0.0                 OUTLET
INLT-B211#1         0.02                0.05                0.0                 0.0                 0.0                 OUTLET
INLT-B211#2         0.02                0.05                0.0                 0.0                 0.0                 OUTLET
INLT-B215#1         0.02                0.05                0.0                 0.0                 0.0                 OUTLET
INLT-B215#2         0.02                0.05                0.0                 0.0                 0.0                 OUTLET
INLT-B231#1         0.02                0.05                0.0                 0.0                 0.0                 OUTLET
INLT-B233#1         0.02                0.05                0.0                 0.0                 0.0                 OUTLET
INLT-B235#1         0.02                0.05                0.0                 0.0                 0.0                 OUTLET
INLT-B235#2         0.02                0.05                0.0                 0.0                 0.0                 OUTLET
INLT-B245#1         0.02                0.05                0.0                 0.0                 0.0                 OUTLET
INLT-B245#2         0.02                0.05                0.0                 0.0                 0.0                 OUTLET
INLT-B305#1         0.02                0.05                0.0                 0.0                 0.0                 OUTLET
INLT-B306#1         0.02                0.05                0.0                 0.0                 0.0                 OUTLET
INLT-B308#1         0.02                0.05                0.0                 0.0                 0.0                 OUTLET
INLT-B335#1         0.02                0.05                0.0                 0.0                 0.0                 OUTLET
INLT-C105#1         0.02                0.05                0.0                 0.0                 0.0                 OUTLET
INLT-C90C#1         0.02                0.05                0.0                 0.0                 0.0                 OUTLET
INLT-HP07#1         0.02                0.05                0.0                 0.0                 0.0                 OUTLET
INLT_GS1#1          0.02                0.05                0.0                 0.0                 0.0                 OUTLET
INLT_GS2#1          0.02                0.05                0.0                 0.0                 0.0                 OUTLET
INLT_WS1#1          0.02                0.05                0.0                 0.0                 0.0                 OUTLET
INLT_WS2#1          0.02                0.05                0.0                 0.0                 0.0                 OUTLET
INLT_WS3#1          0.02                0.05                0.0                 0.0                 0.0                 OUTLET
INLT_WS3#2          0.02                0.05                0.0                 0.0                 0.0                 OUTLET
MH-24#1             0.02                0.05                0.0                 0.0                 0.0                 OUTLET
MH-B100_2#1         0.02                0.05                0.0                 0.0                 0.0                 OUTLET
MH-Hp07#1           0.02                0.05                0.0                 0.0                 0.0                 OUTLET
PAS01#1             0.02                0.05                0.0                 0.0                 0.0                 OUTLET
PAS01#2             0.02                0.05                0.0                 0.0                 0.0                 OUTLET
PAS04#1             0.02                0.05                0.0                 0.0                 0.0                 OUTLET
PAS04#2             0.02                0.05                0.0                 0.0                 0.0                 OUTLET
PAS05#1             0.02                0.05                0.0                 0.0                 0.0                 OUTLET