[OPTIONS]
;;Option            Value
;;----------------  ----------------
START_DATE          01/01/2019
START_TIME          00:00:00
END_DATE            01/02/2019
END_TIME            06:00:00
REPORT_STEP         00:01:00
FLOW_UNITS          CFS
INFILTRATION        GREEN_AMPT
FORCE_MAIN_EQUATION H-W
FLOW_ROUTING        DYNWAVE
ALLOW_PONDING       YES
ROUTING_STEP        00:00:01
LINK_OFFSETS        ELEVATION

[JUNCTIONS]
;;Name              Elev                Ymax                Y0                  Ysur                Apond
;;----------------  ----------------    ----------------    ----------------    ----------------    ----------------
Node7               926.5077            20.00030000000004   0.0                 0.0                 0.0

[OUTFALLS]
;;Name              Elev                Type                Param1              Gated               RouteTo
;;                                      FREE                                    Gated               RouteTo
;;                                      NORMAL                                  Gated               RouteTo
;;                                      FIXED               Stage               Gated               RouteTo
;;                                      TIDAL               Tcurve              Gated               RouteTo
;;                                      TIMESERIES          Tseries             Gated               RouteTo
;;----------------  ----------------    ----------------    ----------------    ----------------    ----------------
Node8               926.398             FIXED               926.398

[CONDUITS]
;;Name              From Node           To Node             Length              Roughness           InOffset            OutOffset           InitFlow            MaxFlow
;;----------------  ----------------    ----------------    ----------------    ----------------    ----------------    ----------------    ----------------    ----------------
Link112             Node7               Node8               117.64              0.015               926.5077            926.398             0.0

[LOSSES]
;;Link              Kentry              Kexit               Kavg                Flap                Seepage
;;----------------  ----------------    ----------------    ----------------    ----------------    ----------------
Link112             0.0                 0.0                 0.0

[XSECTIONS]
;;Link              XsecType            Param1              Param2              Param3              Param4              Param5              Param6
;;                  Default             Geom1               Geom2               Geom3               Geom4               Barrels             Culvert
;;                  CUSTOM              Geom1               Curve               Geom3               Geom4               Barrels
;;                  IRREGULAR           Tsect
;;                  STREET              Street
;;----------------  ----------------    ----------------    ----------------    ----------------    ----------------    ----------------    ----------------
Link112             IRREGULAR           trap_8'bot

[TRANSECTS]
;;Datatype          Param1              Param2              Param3              Param4              Param5              Param6              Param7              Param8              Param9              Param10
;;----------------  ----------------    ----------------    ----------------    ----------------    ----------------    ----------------    ----------------    ----------------    ----------------    ----------------
NC                  0.234               0.345               0.112
X1                  trap_8'bot          4                   -4.0                4.0                 0                   0                   0                   0.0                 0.0                 0.0
GR                  20.0                -14.0
GR                  0.0                 -4.0
GR                  0.0                 4.0
GR                  20.0                14.0

[COORDINATES]
;;Name              X-Coord             Y-Coord
;;----------------  ----------------    ----------------
Node7               6764391.3899        1832813.3007
Node8               6764286.0005        1832760.6759

