[OPTIONS]
;;Option            Value
;;----------------  ----------------
START_DATE          01/01/1998
START_TIME          00:00:00
END_DATE            01/01/1998
END_TIME            06:00:00
REPORT_STEP         00:01:00
FLOW_UNITS          CFS
INFILTRATION        CURVE_NUMBER
FORCE_MAIN_EQUATION H-W
FLOW_ROUTING        DYNWAVE
ALLOW_PONDING       YES
ROUTING_STEP        00:00:01
LINK_OFFSETS        ELEVATION

[RAINGAGES]
;;Name              Form                Intvl               SnowCatchDeficiency Format              Param1              Param2              Param3
;;                                                                              TIMESERIES          Tseries
;;                                                                              FILE                Fname               Sta                 Units
;;----------------  ----------------    ----------------    ----------------    ----------------    ----------------    ----------------    ----------------
RainGage            INTENSITY           0.08333333333333333 1.0                 TIMESERIES          RainGage_rf

[SUBCATCHMENTS]
;;Name              Rain Gage           Outlet              Area                PctImperv           Width               PctSlope            CurbLen             SnowPack
;;----------------  ----------------    ----------------    ----------------    ----------------    ----------------    ----------------    ----------------    ----------------
J1#1                RainGage            J1                  4.55                56.8                1587.0              2.0                 0.0
J10#1               RainGage            J10                 4.79                87.7                1670.0              2.0                 0.0
J10#2               RainGage            J10                 0                   0                   0                   0                   0.0
J11#1               RainGage            J11                 1.98                95.0                690.0               2.0                 0.0
J2#1                RainGage            J2                  4.74                63.0                1653.0              2.0                 0.0
J3#1                RainGage            J3                  3.74                39.5                1456.0              3.1                 0.0
J7#1                RainGage            J7                  6.79                49.9                2331.0              3.1                 0.0

[SUBAREAS]
;;Subcatchment      Nimp                Nperv               Simp                Sperv               PctZero             RouteTo             PctRouted
;;----------------  ----------------    ----------------    ----------------    ----------------    ----------------    ----------------    ----------------
J1#1                0.02                0.05                0.0                 0.0                 0.0                 OUTLET
J10#1               0.02                0.05                0.0                 0.0                 0.0                 OUTLET
J10#2               0.02                0.05                0.0                 0.0                 0.0                 OUTLET
J11#1               0.02                0.05                0.0                 0.0                 0.0                 OUTLET
J2#1                0.02                0.05                0.0                 0.0                 0.0                 OUTLET
J3#1                0.02                0.05                0.0                 0.0                 0.0                 OUTLET
J7#1                0.02                0.05                0.0                 0.0                 0.0                 OUTLET

[INFILTRATION]
;;Subcatchment      p1                  p2                  p3                  p4                  p5                  Method
;;----------------  ----------------    ----------------    ----------------    ----------------    ----------------    ----------------
J1#1                81.0                0.0                 0.0                 0.0                 0.0                 CURVE_NUMBER
J10#1               80.0                0.0                 0.0                 0.0                 0.0                 CURVE_NUMBER
J10#2               80.0                0.0                 0.0                 0.0                 0.0                 CURVE_NUMBER
J11#1               80.0                0.0                 0.0                 0.0                 0.0                 CURVE_NUMBER
J2#1                80.0                0.0                 0.0                 0.0                 0.0                 CURVE_NUMBER
J3#1                80.0                0.0                 0.0                 0.0                 0.0                 CURVE_NUMBER
J7#1                80.0                0.0                 0.0                 0.0                 0.0                 CURVE_NUMBER

[JUNCTIONS]
;;Name              Elev                Ymax                Y0                  Ysur                Apond
;;----------------  ----------------    ----------------    ----------------    ----------------    ----------------
J1                  4973.0              0.0                 0.0                 0.0                 0.0
J10                 4963.8              0.0                 0.0                 0.0                 0.0
J11                 4963.0              0.0                 0.0                 0.0                 0.0
J2                  4969.0              0.0                 0.0                 0.0                 0.0
J3                  4973.0              0.0                 0.0                 0.0                 0.0
J4                  4971.0              0.0                 0.0                 0.0                 0.0
J5                  4969.8              0.0                 0.0                 0.0                 0.0
J6                  4969.0              0.0                 0.0                 0.0                 0.0
J7                  4971.5              0.0                 0.0                 0.0                 0.0
J8                  4966.5              0.0                 0.0                 0.0                 0.0
J9                  4964.8              0.0                 0.0                 0.0                 0.0

[OUTFALLS]
;;Name              Elev                Type                Param1              Gated               RouteTo
;;                                      FREE                                    Gated               RouteTo
;;                                      NORMAL                                  Gated               RouteTo
;;                                      FIXED               Stage               Gated               RouteTo
;;                                      TIDAL               Tcurve              Gated               RouteTo
;;                                      TIMESERIES          Tseries             Gated               RouteTo
;;----------------  ----------------    ----------------    ----------------    ----------------    ----------------
O1                  4962.0              FIXED               0.0                 No

[CONDUITS]
;;Name              From Node           To Node             Length              Roughness           InOffset            OutOffset           InitFlow            MaxFlow
;;----------------  ----------------    ----------------    ----------------    ----------------    ----------------    ----------------    ----------------    ----------------
C1                  J1                  J5                  185.0               0.05                4973.0              4969.8              0.0
C10                 J10                 J11                 145.0               0.05                4963.8              4963.0              0.0
C11                 J11                 O1                  89.0                0.016               4963.0              4962.0              0.0
C2                  J2                  J11                 526.0               0.016               4969.0              4967.0              0.0
C3                  J3                  J4                  109.0               0.016               4973.0              4971.0              0.0
C4                  J4                  J5                  133.0               0.05                4971.0              4969.8              0.0
C5                  J5                  J6                  207.0               0.05                4969.8              4969.0              0.0
C6                  J7                  J6                  140.0               0.05                4971.5              4969.0              0.0
C7                  J6                  J8                  95.0                0.016               4969.0              4966.5              0.0
C8                  J8                  J9                  166.0               0.05                4966.5              4964.8              0.0
C9                  J9                  J10                 320.0               0.05                4964.8              4963.8              0.0

[LOSSES]
;;Link              Kentry              Kexit               Kavg                Flap                Seepage
;;----------------  ----------------    ----------------    ----------------    ----------------    ----------------
C1                  0.0                 0.0                 0.0
C10                 0.0                 0.0                 0.0
C11                 0.0                 0.0                 0.0
C2                  0.0                 0.0                 0.0
C3                  0.0                 0.0                 0.0
C4                  0.0                 0.0                 0.0
C5                  0.0                 0.0                 0.0
C6                  0.0                 0.0                 0.0
C7                  0.0                 0.0                 0.0
C8                  0.0                 0.0                 0.0
C9                  0.0                 0.0                 0.0

[XSECTIONS]
;;Link              XsecType            Param1              Param2              Param3              Param4              Param5              Param6
;;                  Default             Geom1               Geom2               Geom3               Geom4               Barrels             Culvert
;;                  CUSTOM              Geom1               Curve               Geom3               Geom4               Barrels
;;                  IRREGULAR           Tsect
;;                  STREET              Street
;;----------------  ----------------    ----------------    ----------------    ----------------    ----------------    ----------------    ----------------
C1                  TRAPEZOIDAL         3.0                 5.0                 5.0                 5.0                 1
C10                 TRAPEZOIDAL         3.0                 5.0                 5.0                 5.0                 1
C11                 CIRCULAR            4.75                0.0                 0.0                 0.0                 1
C2                  TRAPEZOIDAL         1.0                 0.0                 0.0                 25.0                1
C3                  CIRCULAR            2.25                0.0                 0.0                 0.0                 1
C4                  TRAPEZOIDAL         3.0                 5.0                 5.0                 5.0                 1
C5                  TRAPEZOIDAL         3.0                 5.0                 5.0                 5.0                 1
C6                  TRAPEZOIDAL         3.0                 5.0                 5.0                 5.0                 1
C7                  CIRCULAR            3.5                 0.0                 0.0                 0.0                 1
C8                  TRAPEZOIDAL         3.0                 5.0                 5.0                 5.0                 1
C9                  TRAPEZOIDAL         3.0                 5.0                 5.0                 5.0                 1

[TIMESERIES]
;;Name              Date                Time                Value
;;----------------  ----------------    ----------------    ----------------
RainGage_rf                             0.0                 0.288
RainGage_rf                             0.08333333333333333 0.32999999999999996
RainGage_rf                             0.16666666666666666 0.378
RainGage_rf                             0.25                0.642
RainGage_rf                             0.3333333333333333  0.8099999999999999
RainGage_rf                             0.41666666666666663 1.572
RainGage_rf                             0.5                 2.85
RainGage_rf                             0.5833333333333333  1.182
RainGage_rf                             0.6666666666666666  0.708
RainGage_rf                             0.75                0.42
RainGage_rf                             0.8333333333333333  0.348
RainGage_rf                             0.9166666666666666  0.3
RainGage_rf                             1.0                 0.198
RainGage_rf                             1.0833333333333333  0.192
RainGage_rf                             1.1666666666666665  0.18
RainGage_rf                             1.25                0.168
RainGage_rf                             1.3333333333333333  0.168
RainGage_rf                             1.4166666666666665  0.162
RainGage_rf                             1.5                 0.15
RainGage_rf                             1.5833333333333333  0.15
RainGage_rf                             1.6666666666666665  0.138
RainGage_rf                             1.75                0.138
RainGage_rf                             1.8333333333333333  0.132
RainGage_rf                             1.9166666666666665  0.132
RainGage_rf                             2.0                 0.0

[COORDINATES]
;;Name              X-Coord             Y-Coord
;;----------------  ----------------    ----------------
J1                  648.532             1043.713
J10                 1254.058            640.029
J11                 1334.823            497.305
J2                  1221.281            1005.76
J3                  405.287             905.702
J4                  505.345             862.573
J5                  631.281             859.123
J6                  822.772             819.444
J7                  831.398             709.035
J8                  915.93              840.146
J9                  1072.918            867.749
O1                  1411.468            477.401

[POLYGONS]
;;Name              X-Coord             Y-Coord
;;----------------  ----------------    ----------------
J1#1                282.66              1334.81
J1#1                111.7               1101.6
J1#1                172.53              1062.74
J1#1                231.66              1027.26
J1#1                306.0               990.09
J1#1                370.21              959.68
J1#1                409.07              946.16
J1#1                444.55              936.03
J1#1                493.55              924.2
J1#1                532.41              915.75
J1#1                569.58              907.3
J1#1                610.13              897.17
J1#1                655.74              897.17
J1#1                684.34              1318.7
J1#1                651.04              1321.92
J1#1                596.27              1332.66
J1#1                551.16              1346.62
J1#1                495.31              1367.03
J1#1                455.57              1384.21
J1#1                410.47              1409.99
J1#1                386.84              1427.18
J1#1                363.21              1442.21
J2#1                678.97              1238.15
J2#1                673.58              1152.9
J2#1                655.74              897.17
J2#1                758.81              893.79
J2#1                817.94              895.48
J2#1                880.46              898.86
J2#1                921.01              905.61
J2#1                978.45              920.82
J2#1                1042.66             937.72
J2#1                1103.48             959.68
J2#1                1159.24             985.02
J2#1                1225.13             1010.37
J2#1                1109.65             1274.67
J2#1                1052.72             1400.33
J2#1                985.06              1370.25
J2#1                924.92              1348.77
J2#1                861.55              1331.59
J2#1                815.37              1325.14
J2#1                762.74              1319.77
J2#1                719.78              1316.55
J2#1                684.34              1317.63
J3#1                109.2               1103.26
J3#1                141.75              1081.56
J3#1                190.59              1051.71
J3#1                247.56              1019.16
J3#1                304.53              989.32
J3#1                354.72              964.9
J3#1                398.12              949.98
J3#1                490.17              922.51
J3#1                477.74              883.28
J3#1                501.99              816.07
J3#1                556.06              778.9
J3#1                488.48              679.21
J3#1                422.58              729.9
J3#1                282.35              557.56
J3#1                179.73              633.93
J3#1                153.96              651.56
J3#1                107.84              693.61
J3#1                71.22               742.44
J3#1                48.16               785.85
J3#1                31.88               837.39
J3#1                29.17               886.23
J3#1                31.88               933.7
J3#1                38.66               967.61
J3#1                50.87               1001.53
J3#1                65.79               1035.44
J3#1                87.5                1070.7
J7#1                282.35              559.25
J7#1                420.89              729.9
J7#1                488.48              680.9
J7#1                556.83              779.07
J7#1                501.21              814.34
J7#1                479.47              885.0
J7#1                491.72              922.85
J7#1                616.51              898.43
J7#1                668.06              897.08
J7#1                783.36              895.72
J7#1                815.91              898.43
J7#1                857.96              899.79
J7#1                890.6               897.17
J7#1                968.32              915.75
J7#1                1042.66             937.72
J7#1                1074.76             849.86
J7#1                1054.48             773.83
J7#1                1020.69             702.86
J7#1                963.25              623.45
J7#1                689.54              256.82
J10#1               1122.47             968.97
J10#1               1174.01             987.28
J10#1               1225.56             1005.59
J10#1               1377.48             675.98
J10#1               1391.04             642.07
J10#1               1396.47             598.66
J10#1               1381.62             491.54
J10#1               1331.34             519.82
J10#1               1249.63             640.81
J10#1               1150.64             617.24
J10#1               1020.73             704.46
J10#1               1054.65             772.29
J10#1               1076.8              848.21
J10#1               1056.37             900.06
J10#1               1040.66             937.77
J10#2               1304.058            640.029
J10#2               1303.8172363336098  635.1281429835219
J10#2               1303.0972640201614  630.2744838991936
J10#2               1301.9050167866105  625.5147661372769
J10#2               1300.2519766255643  620.8948283817455
J10#2               1298.1540632174178  616.4591631587001
J10#2               1295.6314806151272  612.2504883490199
J10#2               1292.7085226681368  608.3093357918177
J10#2               1289.4133390593274  604.6736609406726
J10#2               1285.7776642081822  601.3784773318631
J10#2               1281.8365116509801  598.4555193848728
J10#2               1277.6278368413     595.9329367825823
J10#2               1273.1921716182544  593.8350233744357
J10#2               1268.5722338627231  592.1819832133896
J10#2               1263.8125161008063  590.9897359798384
J10#2               1258.958857016478   590.2697636663902
J10#2               1254.058            590.029
J10#2               1249.157142983522   590.2697636663902
J10#2               1244.3034838991937  590.9897359798384
J10#2               1239.5437661372769  592.1819832133896
J10#2               1234.9238283817456  593.8350233744357
J10#2               1230.4881631587002  595.9329367825823
J10#2               1226.2794883490199  598.4555193848728
J10#2               1222.3383357918178  601.3784773318631
J10#2               1218.7026609406726  604.6736609406726
J10#2               1215.4074773318632  608.3093357918177
J10#2               1212.4845193848728  612.2504883490199
J10#2               1209.9619367825821  616.4591631587001
J10#2               1207.8640233744356  620.8948283817455
J10#2               1206.2109832133895  625.5147661372769
J10#2               1205.0187359798385  630.2744838991936
J10#2               1204.2987636663902  635.1281429835219
J10#2               1204.058            640.029
J10#2               1204.2987636663902  644.9298570164781
J10#2               1205.0187359798385  649.7835161008064
J10#2               1206.2109832133895  654.5432338627231
J10#2               1207.8640233744356  659.1631716182545
J10#2               1209.9619367825821  663.5988368412999
J10#2               1212.4845193848728  667.8075116509801
J10#2               1215.4074773318632  671.7486642081823
J10#2               1218.7026609406726  675.3843390593273
J10#2               1222.3383357918176  678.6795226681368
J10#2               1226.2794883490199  681.6024806151272
J10#2               1230.4881631587     684.1250632174177
J10#2               1234.9238283817456  686.2229766255643
J10#2               1239.5437661372769  687.8760167866104
J10#2               1244.3034838991935  689.0682640201616
J10#2               1249.157142983522   689.7882363336098
J10#2               1254.058            690.029
J10#2               1258.958857016478   689.7882363336098
J10#2               1263.8125161008063  689.0682640201616
J10#2               1268.5722338627231  687.8760167866104
J10#2               1273.1921716182544  686.2229766255643
J10#2               1277.6278368412998  684.1250632174177
J10#2               1281.8365116509801  681.6024806151273
J10#2               1285.7776642081822  678.6795226681369
J10#2               1289.4133390593274  675.3843390593274
J10#2               1292.7085226681368  671.7486642081823
J10#2               1295.6314806151272  667.8075116509801
J10#2               1298.1540632174178  663.5988368412999
J10#2               1300.2519766255643  659.1631716182545
J10#2               1301.9050167866105  654.5432338627231
J10#2               1303.0972640201614  649.7835161008064
J10#2               1303.8172363336098  644.929857016478
J11#1               1334.48             519.82
J11#1               1306.27             488.96
J11#1               1293.38             474.21
J11#1               1232.34             393.84
J11#1               1241.84             381.63
J11#1               1222.84             365.35
J11#1               1232.34             353.14
J11#1               1027.52             65.57
J11#1               1012.6              56.08
J11#1               707.39              273.11
J11#1               688.4               254.12
J11#1               739.95              218.85
J11#1               788.78              159.17
J11#1               806.41              106.27
J11#1               813.2               1.82
J11#1               994.96              12.67
J11#1               1228.27             27.59
J11#1               1222.84             115.76
J11#1               1228.27             167.31
J11#1               1241.84             229.71
J11#1               1255.4              254.12
J11#1               1279.82             302.95
J11#1               1309.66             354.5
J11#1               1335.43             401.97
J11#1               1359.85             448.09
J11#1               1370.62             475.83
J11#1               1381.62             491.54

